@<TRIPOS>MOLECULE
tmp/1suaA00.pdb
 169 162 0 0 0
SMALL
GASTEIGER

@<TRIPOS>ATOM
      1  N         14.1030    4.9560   17.3830 N.3    59  ASN59      -0.1240
      2  CA        14.8530    3.7800   17.8020 C.3    59  ASN59       0.1653
      3  C         14.2460    3.0630   18.9780 C.2    59  ASN59       0.2266
      4  O         14.1070    1.8040   18.9180 O.2    59  ASN59      -0.2867
      5  CB        16.3530    4.1550   17.9530 C.3    59  ASN59       0.1155
      6  CG        17.2910    2.9710   18.1160 C.2    59  ASN59       0.2627
      7  OD1       17.3110    2.3680   19.2030 O.2    59  ASN59      -0.2716
      8  ND2       17.9680    2.5750   17.0770 N.am   59  ASN59      -0.0877
      9  N         15.8580    3.8080   22.0790 N.3    61  HIS61      -0.1241
     10  CA        17.0530    4.0380   22.8190 C.3    61  HIS61       0.1621
     11  C         17.0230    5.2120   23.7600 C.2    61  HIS61       0.2264
     12  O         17.0270    5.0070   24.9900 O.2    61  HIS61      -0.2867
     13  CB        18.3700    3.8890   22.0110 C.3    61  HIS61       0.0745
     14  CG        19.5730    3.5560   22.8330 C.ar   61  HIS61       0.0817
     15  ND1       20.3500    4.5170   23.4170 N.ar   61  HIS61      -0.2268
     16  CD2       20.1170    2.3530   23.1780 C.ar   61  HIS61       0.1154
     17  CE1       21.3200    3.9450   24.1010 C.ar   61  HIS61       0.1986
     18  NE2       21.2190    2.6330   23.9670 N.ar   61  HIS61      -0.2212
     19  N         21.8060   10.3850   17.2890 N.3    84  LEU84      -0.1245
     20  CA        21.6280    9.0910   16.6630 C.3    84  LEU84       0.1561
     21  C         20.3200    9.1130   15.8460 C.2    84  LEU84       0.2260
     22  O         19.3820    9.8630   16.1200 O.2    84  LEU84      -0.2867
     23  CB        21.7650    7.9650   17.6460 C.3    84  LEU84       0.0270
     24  CG        22.8090    7.7520   18.6710 C.3    84  LEU84       0.0019
     25  CD1       22.3640    6.7990   19.7850 C.3    84  LEU84       0.0001
     26  CD2       24.1390    7.2430   18.1040 C.3    84  LEU84       0.0001
     27  N         18.4400    3.8530   13.3050 N.3    87  ASP87      -0.1225
     28  CA        19.3290    2.7180   13.2890 C.3    87  ASP87       0.1805
     29  C         20.1680    2.5470   14.5410 C.2    87  ASP87       0.2598
     30  O         20.6660    1.4150   14.7790 O.2    87  ASP87      -0.2718
     31  CB        20.0360    2.5350   11.9860 C.3    87  ASP87       0.1424
     32  CG        20.9470    3.5430   11.3750 C.2    87  ASP87       0.3668
     33  OD1       21.2220    4.6580   11.8180 O.co2  87  ASP87      -0.2456
     34  OD2       21.4200    3.1880   10.2340 O.co2  87  ASP87      -0.2456
     35  N         20.3270    3.5740   15.3580 N.am   88  GLY88      -0.1942
     36  CA        21.1560    3.5680   16.5550 C.3    88  GLY88       0.2014
     37  C         22.5620    4.0890   16.3470 C.2    88  GLY88       0.2640
     38  O         23.3790    4.2240   17.2980 O.2    88  GLY88      -0.2714
     39  N         22.9290    4.3710   15.1110 N.am   89  SER89      -0.1935
     40  CA        24.2070    4.8940   14.7030 C.3    89  SER89       0.2055
     41  C         24.1330    6.4120   14.5340 C.2    89  SER89       0.2643
     42  O         23.0780    6.9820   14.2180 O.2    89  SER89      -0.2714
     43  CB        24.7990    4.1600   13.5230 C.3    89  SER89       0.2130
     44  OG        24.3400    4.5890   12.2860 O.3    89  SER89      -0.2179
     45  N         25.2840    7.0380   14.7200 N.am   90  GLY90      -0.1954
     46  CA        25.4690    8.4580   14.5740 C.3    90  GLY90       0.1869
     47  C         26.8810    8.8360   14.2080 C.2    90  GLY90       0.2309
     48  O         27.8840    8.2100   14.5900 O.2    90  GLY90      -0.2863
     49  N         30.2420   11.1980   14.4080 N.3    92  TYR92      -0.1241
     50  CA        31.0830   11.8960   15.3840 C.3    92  TYR92       0.1605
     51  C         30.8530   13.3690   15.4340 C.2    92  TYR92       0.2264
     52  O         30.7220   13.9810   16.5190 O.2    92  TYR92      -0.2867
     53  CB        32.4960   11.3520   15.3700 C.3    92  TYR92       0.0534
     54  CG        32.8710   10.1470   16.1940 C.ar   92  TYR92      -0.0201
     55  CD1       32.0620    9.0280   16.4240 C.ar   92  TYR92      -0.0009
     56  CD2       34.1600   10.0860   16.7610 C.ar   92  TYR92      -0.0009
     57  CE1       32.4240    7.9760   17.2150 C.ar   92  TYR92       0.0417
     58  CE2       34.5510    9.0160   17.5620 C.ar   92  TYR92       0.0417
     59  CZ        33.6930    7.9600   17.7870 C.ar   92  TYR92       0.1957
     60  OH        34.0710    6.9230   18.5750 O.3    92  TYR92      -0.2866
     61  N         27.3860   14.1460   17.2260 N.3    95  ILE95      -0.1245
     62  CA        27.7850   13.9640   18.5860 C.3    95  ILE95       0.1561
     63  C         28.5000   15.2070   19.1120 C.2    95  ILE95       0.2260
     64  O         28.0480   15.7170   20.1420 O.2    95  ILE95      -0.2867
     65  CB        28.4410   12.6220   19.0030 C.3    95  ILE95       0.0252
     66  CG1       27.6130   11.3850   18.5250 C.3    95  ILE95       0.0019
     67  CG2       28.6520   12.4780   20.5680 C.3    95  ILE95       0.0019
     68  CD1       28.3580   10.0910   18.2560 C.3    95  ILE95       0.0001
     69  N         24.8860    7.6250   26.4120 N.3   113  SER113     -0.1202
     70  CA        24.6230    6.1470   26.4530 C.3   113  SER113      0.2020
     71  C         24.9100    5.5770   25.0730 C.2   113  SER113      0.2619
     72  O         24.1820    4.8330   24.3920 O.2   113  SER113     -0.2717
     73  CB        23.2420    5.8970   26.9980 C.3   113  SER113      0.2103
     74  OG        23.0360    5.9800   28.3630 O.3   113  SER113     -0.2182
     75  N         26.0800    5.9490   24.5620 N.am  114  LEU114     -0.1965
     76  CA        26.6860    5.7420   23.2840 C.3   114  LEU114      0.1728
     77  C         28.1990    5.5370   23.3710 C.2   114  LEU114      0.2617
     78  O         28.8740    5.9810   24.3210 O.2   114  LEU114     -0.2715
     79  CB        26.2460    6.8590   22.3200 C.3   114  LEU114      0.0311
     80  CG        26.5690    8.3050   22.4660 C.3   114  LEU114      0.0022
     81  CD1       28.0240    8.6510   22.0130 C.3   114  LEU114      0.0001
     82  CD2       25.6700    9.1080   21.5030 C.3   114  LEU114      0.0001
     83  N         28.7440    4.8840   22.3510 N.am  115  GLY115     -0.1940
     84  CA        30.1840    4.6410   22.2390 C.3   115  GLY115      0.2014
     85  C         30.5940    4.0310   20.9170 C.2   115  GLY115      0.2639
     86  O         29.8420    3.2850   20.2750 O.2   115  GLY115     -0.2714
     87  N         31.8090    4.3610   20.5220 N.am  116  GLY116     -0.1940
     88  CA        32.5410    3.9000   19.3730 C.3   116  GLY116      0.1998
     89  C         33.8820    3.2980   19.7240 C.2   116  GLY116      0.2480
     90  O         34.4860    3.4380   20.8120 O.2   116  GLY116     -0.2729
     91  N         34.4130    2.5390   18.7640 N.am  117  PRO117     -0.2726
     92  CA        35.7000    1.8450   18.9430 C.3   117  PRO117      0.1402
     93  C         36.8960    2.7500   18.8280 C.2   117  PRO117      0.2269
     94  O         37.8900    2.6100   19.5880 O.2   117  PRO117     -0.2865
     95  CB        35.5950    0.6910   17.9750 C.3   117  PRO117      0.0296
     96  CG        34.6980    1.1640   16.8490 C.3   117  PRO117      0.0237
     97  CD        33.8340    2.2510   17.4400 C.3   117  PRO117      0.0939
     98  N         28.4510    5.5600   28.8360 N.3   140  ALA140     -0.1245
     99  CA        28.5320    4.0850   29.0600 C.3   140  ALA140      0.1562
    100  C         29.9160    3.5910   28.6280 C.2   140  ALA140      0.2260
    101  O         30.4970    4.0770   27.6290 O.2   140  ALA140     -0.2867
    102  CB        27.4570    3.4250   28.1300 C.3   140  ALA140      0.0290
    103  N         30.7200    0.7750   27.3640 N.3   142  GLY142     -0.1210
    104  CA        30.6080   -0.0270   26.1910 C.3   142  GLY142      0.1956
    105  C         30.2110   -1.4700   26.4940 C.2   142  GLY142      0.2612
    106  O         30.2300   -1.9400   27.6480 O.2   142  GLY142     -0.2717
    107  N         29.8620   -2.1760   25.4460 N.am  143  ASN143     -0.1960
    108  CA        29.3700   -3.5760   25.5710 C.3   143  ASN143      0.1819
    109  C         30.2530   -4.5290   24.7930 C.2   143  ASN143      0.2621
    110  O         29.9040   -5.4560   24.0270 O.2   143  ASN143     -0.2715
    111  CB        27.8750   -3.6650   25.3610 C.3   143  ASN143      0.1195
    112  CG        26.9440   -2.5890   25.8080 C.2   143  ASN143      0.2630
    113  OD1       27.0050   -2.0600   26.9250 O.2   143  ASN143     -0.2716
    114  ND2       26.0800   -2.1550   24.8650 N.am  143  ASN143     -0.0877
    115  N         31.5530   -4.3770   25.0480 N.am  144  GLU144     -0.1977
    116  CA        32.6080   -5.1110   24.3700 C.3   144  GLU144      0.1602
    117  C         33.0570   -6.3710   24.9410 C.2   144  GLU144      0.2287
    118  O         33.7830   -7.1940   24.3010 O.2   144  GLU144     -0.2864
    119  CB        33.7180   -4.1640   23.9300 C.3   144  GLU144      0.0415
    120  CG        33.4310   -3.0370   22.9390 C.3   144  GLU144      0.1163
    121  CD        32.8400   -3.3340   21.6060 C.2   144  GLU144      0.3649
    122  OE1       33.0080   -4.3250   20.9130 O.co2 144  GLU144     -0.2457
    123  OE2       32.0410   -2.4290   21.2740 O.co2 144  GLU144     -0.2457
    124  N         34.9170    1.9100   25.1540 N.3   154  GLY154     -0.1210
    125  CA        34.7690    2.7410   23.9500 C.3   154  GLY154      0.1956
    126  C         34.8700    4.2210   24.2810 C.2   154  GLY154      0.2611
    127  O         34.9270    4.6730   25.4100 O.2   154  GLY154     -0.2717
    128  N         34.8720    5.0070   23.2300 N.am  155  TYR155     -0.1976
    129  CA        34.9260    6.4890   23.2790 C.3   155  TYR155      0.1639
    130  C         33.5070    7.0500   23.1630 C.2   155  TYR155      0.2290
    131  O         32.6750    6.4920   22.4160 O.2   155  TYR155     -0.2864
    132  CB        35.7690    6.9350   22.0090 C.3   155  TYR155      0.0560
    133  CG        37.2330    6.5440   22.0480 C.ar  155  TYR155     -0.0198
    134  CD1       37.6470    5.2570   21.6660 C.ar  155  TYR155     -0.0009
    135  CD2       38.2010    7.4370   22.5130 C.ar  155  TYR155     -0.0009
    136  CE1       38.9800    4.8990   21.7030 C.ar  155  TYR155      0.0417
    137  CE2       39.5510    7.0950   22.5410 C.ar  155  TYR155      0.0417
    138  CZ        39.9250    5.8170   22.1350 C.ar  155  TYR155      0.1957
    139  OH        41.2590    5.4970   22.1850 O.3   155  TYR155     -0.2866
    140  N         18.9700   -4.1550   28.2510 N.3   206  SER206     -0.1202
    141  CA        20.2640   -4.4770   28.8410 C.3   206  SER206      0.2020
    142  C         21.4060   -3.7400   28.1560 C.2   206  SER206      0.2619
    143  O         21.4220   -3.4720   26.9480 O.2   206  SER206     -0.2717
    144  CB        20.4910   -5.9890   28.8390 C.3   206  SER206      0.2103
    145  OG        19.8680   -6.5430   29.9690 O.3   206  SER206     -0.2182
    146  N         22.4220   -3.4060   28.9440 N.am  207  GLY207     -0.1942
    147  CA        23.6100   -2.7230   28.3150 C.3   207  GLY207      0.2014
    148  C         24.0990   -1.5990   29.1930 C.2   207  GLY207      0.2640
    149  O         23.4560   -1.1630   30.1780 O.2   207  GLY207     -0.2714
    150  N         25.2600   -1.0900   28.8280 N.am  208  THR208     -0.1936
    151  CA        25.8990    0.0440   29.5330 C.3   208  THR208      0.2028
    152  C         25.1740    1.3500   29.3080 C.2   208  THR208      0.2642
    153  O         25.2740    2.3170   30.0440 O.2   208  THR208     -0.2714
    154  CB        27.4620    0.0640   29.3760 C.3   208  THR208      0.1808
    155  OG1       27.7810    0.1460   27.9520 O.3   208  THR208     -0.2208
    156  CG2       28.2200   -1.1000   30.0330 C.3   208  THR208      0.0379
    157  N         24.2980    1.3930   28.3060 N.am  209  ALA209     -0.1963
    158  CA        23.3810    2.4840   27.9770 C.3   209  ALA209      0.1728
    159  C         22.3760    2.7390   29.0970 C.2   209  ALA209      0.2616
    160  O         22.0480    3.8940   29.3950 O.2   209  ALA209     -0.2715
    161  CB        22.7600    2.2190   26.6200 C.3   209  ALA209      0.0334
    162  N         21.9940    1.7080   29.7790 N.am  210  MET210     -0.1977
    163  CA        21.1140    1.5400   30.9050 C.3   210  MET210      0.1605
    164  C         21.7640    1.8820   32.2270 C.2   210  MET210      0.2287
    165  O         21.0930    2.4970   33.1190 O.2   210  MET210     -0.2864
    166  CB        20.4600    0.1380   30.9150 C.3   210  MET210      0.0413
    167  CG        19.4510   -0.1100   29.8350 C.3   210  MET210      0.0598
    168  SD        20.1740   -0.2100   28.2130 S.3   210  MET210     -0.1393
    169  CE        19.3520    1.1710   27.3500 C.3   210  MET210      0.0692
@<TRIPOS>BOND
     1    34    32   ar
     2    32    33   ar
     3    32    31    1
     4    31    28    1
     5    44    43    1
     6    28    27    1
     7    28    29    1
     8    43    40    1
     9    47    46    1
    10    47    48    2
    11    42    41    2
    12    49    50    1
    13    41    40    1
    14    41    45   am
    15    29    30    2
    16    29    35   am
    17    46    45    1
    18    40    39    1
    19    39    37   am
    20    35    36    1
    21    53    50    1
    22    53    54    1
    23    50    51    1
    24    51    52    2
    25    21    22    2
    26    21    20    1
    27    54    55   ar
    28    54    56   ar
    29    37    36    1
    30    37    38    2
    31    55    57   ar
    32    20    19    1
    33    20    23    1
    34    56    58   ar
    35    96    97    1
    36    96    95    1
    37     8     6   am
    38    57    59   ar
    39    61    62    1
    40     1     2    1
    41    97    91    1
    42    58    59   ar
    43    23    24    1
    44    59    60    1
    45     2     5    1
    46     2     3    1
    47     5     6    1
    48    95    92    1
    49    26    24    1
    50     6     7    2
    51    68    66    1
    52    66    65    1
    53    62    65    1
    54    62    63    1
    55    24    25    1
    56    91    92    1
    57    91    89   am
    58    93    92    1
    59    93    94    2
    60     4     3    2
    61    65    67    1
    62    63    64    2
    63    88    89    1
    64    88    87    1
    65    89    90    2
    66    86    85    2
    67    87    85   am
    68   122   121   ar
    69    85    84    1
    70   123   121   ar
    71    82    80    1
    72   121   120    1
    73   134   136   ar
    74   134   133   ar
    75   136   138   ar
    76   132   133    1
    77   132   129    1
    78    13    10    1
    79    13    14    1
    80    81    80    1
    81   133   135   ar
    82     9    10    1
    83   138   139    1
    84   138   137   ar
    85    84    83    1
    86    79    80    1
    87    79    76    1
    88    83    77   am
    89   131   130    2
    90   135   137   ar
    91    10    11    1
    92    14    16   ar
    93    14    15   ar
    94   120   119    1
    95   130   129    1
    96    16    18   ar
    97   128   129    1
    98   128   126   am
    99    76    77    1
   100    76    75    1
   101    77    78    2
   102    15    17   ar
   103    11    12    2
   104   119   116    1
   105   125   126    1
   106   125   124    1
   107    18    17   ar
   108   110   109    2
   109   126   127    2
   110   118   117    2
   111   116   117    1
   112   116   115    1
   113    72    71    2
   114    75    71   am
   115   109   115   am
   116   109   108    1
   117   114   112   am
   118    71    70    1
   119   111   108    1
   120   111   112    1
   121   107   108    1
   122   107   105   am
   123   112   113    2
   124   104   105    1
   125   104   103    1
   126    69    70    1
   127    70    73    1
   128   105   106    2
   129   161   158    1
   130   143   142    2
   131    73    74    1
   132   169   168    1
   133   101   100    2
   134   155   154    1
   135   158   157    1
   136   158   159    1
   137   102    99    1
   138   142   141    1
   139   142   146   am
   140   168   167    1
   141   140   141    1
   142   157   152   am
   143   147   146    1
   144   147   148    1
   145   100    99    1
   146   150   148   am
   147   150   151    1
   148    98    99    1
   149   144   141    1
   150   144   145    1
   151   159   160    2
   152   159   162   am
   153   148   149    2
   154   152   151    1
   155   152   153    2
   156   154   151    1
   157   154   156    1
   158   162   163    1
   159   167   166    1
   160   163   166    1
   161   163   164    1
   162   164   165    2
