@<TRIPOS>MOLECULE
tmp/1sueA00.pdb
 85 81 0 0 0
SMALL
GASTEIGER

@<TRIPOS>ATOM
      1  N         14.7420   14.4680   14.3180 N.3    64  HIS64      -0.1241
      2  CA        14.8620   14.6080   15.7630 C.3    64  HIS64       0.1621
      3  C         14.1220   15.8180   16.3370 C.2    64  HIS64       0.2264
      4  O         13.2260   15.7220   17.1560 O.2    64  HIS64      -0.2867
      5  CB        16.2910   14.4070   16.2770 C.3    64  HIS64       0.0745
      6  CG        16.5130   14.2080   17.7600 C.ar   64  HIS64       0.0817
      7  ND1       16.7510   15.2890   18.5950 N.ar   64  HIS64      -0.2268
      8  CD2       16.6670   13.0990   18.5180 C.ar   64  HIS64       0.1154
      9  CE1       16.9920   14.8350   19.8110 C.ar   64  HIS64       0.1986
     10  NE2       16.9350   13.5080   19.8280 N.ar   64  HIS64      -0.2212
     11  N         17.2780   18.6030   23.8950 N.3   116  SER116     -0.1202
     12  CA        17.2430   17.1270   23.8200 C.3   116  SER116      0.2020
     13  C         18.5310   16.7310   23.1080 C.2   116  SER116      0.2619
     14  O         18.5510   16.1990   21.9980 O.2   116  SER116     -0.2717
     15  CB        16.0390   16.5930   23.0750 C.3   116  SER116      0.2103
     16  OG        14.9290   16.9330   23.8370 O.3   116  SER116     -0.2182
     17  N         19.6580   17.0550   23.7560 N.am  117  LEU117     -0.1965
     18  CA        20.9280   16.7690   23.2000 C.3   117  LEU117      0.1728
     19  C         21.9210   16.6910   24.3670 C.2   117  LEU117      0.2616
     20  O         21.6650   17.0800   25.5150 O.2   117  LEU117     -0.2715
     21  CB        21.3780   17.8530   22.1940 C.3   117  LEU117      0.0311
     22  CG        21.2000   19.2960   22.7480 C.3   117  LEU117      0.0022
     23  CD1       22.3980   19.5490   23.6600 C.3   117  LEU117      0.0001
     24  CD2       21.1730   20.3490   21.6550 C.3   117  LEU117      0.0001
     25  N         23.0910   16.1920   24.0300 N.am  118  GLY118     -0.1955
     26  CA        24.1660   16.0500   25.0110 C.3   118  GLY118      0.1869
     27  C         25.4630   15.4340   24.4450 C.2   118  GLY118      0.2309
     28  O         25.5570   14.8030   23.4150 O.2   118  GLY118     -0.2863
     29  N         17.8250   16.8610   28.0990 N.3   143  ALA143     -0.1245
     30  CA        17.8400   15.3960   28.2410 C.3   143  ALA143      0.1562
     31  C         18.9780   14.9710   29.1880 C.2   143  ALA143      0.2260
     32  O         20.1200   15.4670   29.1060 O.2   143  ALA143     -0.2867
     33  CB        18.2080   14.8570   26.8560 C.3   143  ALA143      0.0290
     34  N         20.4620   12.1730   29.0560 N.3   145  GLY145     -0.1210
     35  CA        21.3830   11.4000   28.2790 C.3   145  GLY145      0.1956
     36  C         20.8830    9.9570   28.1810 C.2   145  GLY145      0.2612
     37  O         20.0200    9.4820   28.9410 O.2   145  GLY145     -0.2717
     38  N         21.4160    9.2270   27.2140 N.am  146  ASN146     -0.1960
     39  CA        20.9290    7.8370   27.0640 C.3   146  ASN146      0.1819
     40  C         22.1210    6.8510   27.2130 C.2   146  ASN146      0.2621
     41  O         22.2530    5.9320   26.4350 O.2   146  ASN146     -0.2715
     42  CB        20.4320    7.7530   25.6270 C.3   146  ASN146      0.1195
     43  CG        19.1640    8.5560   25.3380 C.2   146  ASN146      0.2630
     44  OD1       18.6120    9.1680   26.2390 O.2   146  ASN146     -0.2716
     45  ND2       18.7710    8.6560   24.0730 N.am  146  ASN146     -0.0877
     46  N         22.9620    7.1010   28.1930 N.am  147  GLU147     -0.1977
     47  CA        24.1680    6.3980   28.4550 C.3   147  GLU147      0.1602
     48  C         24.0810    5.2060   29.3820 C.2   147  GLU147      0.2287
     49  O         25.1380    4.6210   29.6540 O.2   147  GLU147     -0.2864
     50  CB        25.2450    7.3600   28.9460 C.3   147  GLU147      0.0415
     51  CG        25.5050    8.5200   27.9740 C.3   147  GLU147      0.1163
     52  CD        26.4550    8.0970   26.7890 C.2   147  GLU147      0.3649
     53  OE1       27.6490    8.0730   26.9080 O.co2 147  GLU147     -0.2457
     54  OE2       25.8890    7.6590   25.7340 O.co2 147  GLU147     -0.2457
     55  N         12.3050    6.7480   21.2300 N.3   209  SER209     -0.1202
     56  CA        12.5950    6.5760   22.6170 C.3   209  SER209      0.2020
     57  C         13.9010    7.3370   22.9140 C.2   209  SER209      0.2619
     58  O         14.8810    7.3920   22.1270 O.2   209  SER209     -0.2717
     59  CB        12.8010    5.0890   22.9270 C.3   209  SER209      0.2103
     60  OG        11.5570    4.4070   22.6410 O.3   209  SER209     -0.2182
     61  N         13.9680    7.8700   24.1170 N.am  210  GLY210     -0.1942
     62  CA        15.1800    8.5580   24.5240 C.3   210  GLY210      0.2014
     63  C         14.9100    9.5880   25.6060 C.2   210  GLY210      0.2640
     64  O         13.8080   10.0500   25.7250 O.2   210  GLY210     -0.2714
     65  N         15.9260   10.0130   26.3170 N.am  211  THR211     -0.1936
     66  CA        15.7610   11.0680   27.2600 C.3   211  THR211      0.2028
     67  C         15.4360   12.3030   26.4240 C.2   211  THR211      0.2643
     68  O         14.8970   13.2530   26.9490 O.2   211  THR211     -0.2714
     69  CB        17.0230   11.3130   28.1500 C.3   211  THR211      0.1808
     70  OG1       18.2020   11.4470   27.3510 O.3   211  THR211     -0.2208
     71  CG2       17.1970   10.1030   29.1120 C.3   211  THR211      0.0379
     72  N         15.7690   12.2850   25.1240 N.am  212  SER212     -0.1935
     73  CA        15.4110   13.3980   24.2570 C.3   212  SER212      0.2055
     74  C         13.8860   13.5400   24.1680 C.2   212  SER212      0.2642
     75  O         13.3610   14.6160   23.8960 O.2   212  SER212     -0.2714
     76  CB        15.8060   13.0460   22.8240 C.3   212  SER212      0.2130
     77  OG        17.1440   13.1050   22.6250 O.3   212  SER212     -0.2179
     78  N         13.1080   12.4520   24.4770 N.am  213  MET213     -0.1976
     79  CA        11.6720   12.4980   24.3830 C.3   213  MET213      0.1605
     80  C         11.1380   12.8680   25.7280 C.2   213  MET213      0.2287
     81  O         10.0150   13.4490   25.8310 O.2   213  MET213     -0.2864
     82  CB        11.1130   11.1140   24.0000 C.3   213  MET213      0.0413
     83  CG        11.2430   10.8680   22.4850 C.3   213  MET213      0.0598
     84  SD        12.9060   10.5160   21.9650 S.3   213  MET213     -0.1393
     85  CE        13.2320   11.9530   20.9360 C.3   213  MET213      0.0692
@<TRIPOS>BOND
     1     1     2    1
     2     2     5    1
     3     2     3    1
     4     5     6    1
     5     3     4    2
     6     6     8   ar
     7     6     7   ar
     8     8    10   ar
     9     7     9   ar
    10     9    10   ar
    11    85    84    1
    12    55    56    1
    13    24    22    1
    14    84    83    1
    15    14    13    2
    16    58    57    2
    17    21    22    1
    18    21    18    1
    19    83    82    1
    20    56    57    1
    21    56    59    1
    22    77    76    1
    23    60    59    1
    24    22    23    1
    25    76    73    1
    26    57    61   am
    27    15    12    1
    28    15    16    1
    29    13    17   am
    30    13    12    1
    31    18    17    1
    32    18    19    1
    33    28    27    2
    34    12    11    1
    35    75    74    2
    36    82    79    1
    37    25    19   am
    38    25    26    1
    39    45    43   am
    40    61    62    1
    41    74    73    1
    42    74    78   am
    43    73    72    1
    44    19    20    2
    45    79    78    1
    46    79    80    1
    47    27    26    1
    48    62    63    1
    49    72    67   am
    50    43    42    1
    51    43    44    2
    52    63    64    2
    53    63    65   am
    54    42    39    1
    55    80    81    2
    56    54    52   ar
    57    65    66    1
    58    67    68    2
    59    67    66    1
    60    41    40    2
    61    52    53   ar
    62    52    51    1
    63    33    30    1
    64    39    40    1
    65    39    38    1
    66    40    46   am
    67    38    36   am
    68    66    69    1
    69    70    69    1
    70    51    50    1
    71    29    30    1
    72    69    71    1
    73    36    35    1
    74    36    37    2
    75    46    47    1
    76    30    31    1
    77    35    34    1
    78    47    50    1
    79    47    48    1
    80    32    31    2
    81    48    49    2
