@<TRIPOS>MOLECULE
tmp/1suiA01.pdb
 161 156 0 0 0
SMALL
GASTEIGER

@<TRIPOS>ATOM
      1  N         32.7830   44.3530   36.4050 N.3     1  LYS1       -0.1231
      2  CA        31.6640   44.8090   37.2840 C.3     1  LYS1        0.1693
      3  C         30.3000   44.2730   36.8140 C.2     1  LYS1        0.2592
      4  O         30.2320   43.3630   35.9710 O.2     1  LYS1       -0.2718
      5  CB        31.6370   46.3440   37.3430 C.3     1  LYS1        0.0285
      6  CG        32.9170   46.9490   37.8960 C.3     1  LYS1        0.0035
      7  CD        32.7600   48.4170   38.2560 C.3     1  LYS1        0.0206
      8  CE        34.0510   48.9520   38.8710 C.3     1  LYS1        0.1093
      9  NZ        33.8890   50.3000   39.4810 N.3     1  LYS1       -0.1314
     10  N         29.2230   44.8360   37.3700 N.am    2  SER2       -0.1952
     11  CA        27.8510   44.4410   37.0320 C.3     2  SER2        0.1924
     12  C         26.8810   45.6020   37.2400 C.2     2  SER2        0.2314
     13  O         27.2840   46.6910   37.6480 O.2     2  SER2       -0.2863
     14  CB        27.4190   43.2410   37.8850 C.3     2  SER2        0.2116
     15  OG        27.7710   43.4310   39.2470 O.3     2  SER2       -0.2180
     16  N         35.7150   41.1650   27.1070 N.3    40  ILE40      -0.1231
     17  CA        34.7280   41.9710   27.8110 C.3    40  ILE40       0.1692
     18  C         33.3340   41.8700   27.2010 C.2    40  ILE40       0.2591
     19  O         32.3340   42.1760   27.8590 O.2    40  ILE40      -0.2718
     20  CB        35.1170   43.4540   27.8310 C.3    40  ILE40       0.0266
     21  CG1       34.0910   44.2410   28.6440 C.3    40  ILE40       0.0019
     22  CG2       35.1760   44.0020   26.4120 C.3    40  ILE40       0.0020
     23  CD1       34.3460   45.7230   28.6600 C.3    40  ILE40       0.0001
     24  N         33.2700   41.4310   25.9480 N.am   41  MET41      -0.1979
     25  CA        32.0010   41.3270   25.2420 C.3    41  MET41       0.1605
     26  C         31.2360   40.0400   25.5040 C.2    41  MET41       0.2287
     27  O         30.0340   39.9670   25.2660 O.2    41  MET41      -0.2864
     28  CB        32.2380   41.4750   23.7440 C.3    41  MET41       0.0413
     29  CG        32.9590   42.7520   23.3660 C.3    41  MET41       0.0598
     30  SD        33.1130   43.0040   21.5790 S.3    41  MET41      -0.1393
     31  CE        33.4620   41.2760   21.0010 C.3    41  MET41       0.0692
     32  N         22.8490   40.9630   19.8740 N.3   143  ASP143     -0.1225
     33  CA        23.9390   41.3820   20.7530 C.3   143  ASP143      0.1805
     34  C         25.0850   41.8090   19.8360 C.2   143  ASP143      0.2598
     35  O         26.1940   41.3160   19.9570 O.2   143  ASP143     -0.2718
     36  CB        24.3760   40.2060   21.6580 C.3   143  ASP143      0.1424
     37  CG        25.2070   40.6510   22.8630 C.2   143  ASP143      0.3668
     38  OD1       25.2300   41.8450   23.2070 O.co2 143  ASP143     -0.2456
     39  OD2       25.8330   39.7940   23.5050 O.co2 143  ASP143     -0.2456
     40  N         24.8110   42.7250   18.9150 N.am  144  ALA144     -0.1966
     41  CA        25.8280   43.1770   17.9750 C.3   144  ALA144      0.1728
     42  C         26.0470   44.6800   18.0390 C.2   144  ALA144      0.2616
     43  O         26.1160   45.2430   19.1170 O.2   144  ALA144     -0.2715
     44  CB        25.4360   42.7670   16.5680 C.3   144  ALA144      0.0334
     45  N         26.1530   45.3170   16.8750 N.am  145  ASP145     -0.1957
     46  CA        26.3700   46.7590   16.7480 C.3   145  ASP145      0.1840
     47  C         25.9250   47.6540   17.8890 C.2   145  ASP145      0.2621
     48  O         26.6860   47.9010   18.8340 O.2   145  ASP145     -0.2715
     49  CB        25.6980   47.2640   15.4980 C.3   145  ASP145      0.1450
     50  CG        26.0960   46.4810   14.2910 C.2   145  ASP145      0.3671
     51  OD1       25.6280   45.3300   14.1860 O.co2 145  ASP145     -0.2456
     52  OD2       26.8770   47.0110   13.4650 O.co2 145  ASP145     -0.2456
     53  N         24.7020   48.1650   17.7740 N.am  146  LYS146     -0.1977
     54  CA        24.1030   49.0700   18.7710 C.3   146  LYS146      0.1596
     55  C         23.5690   50.2320   17.9570 C.2   146  LYS146      0.2287
     56  O         22.3820   50.5720   18.0360 O.2   146  LYS146     -0.2864
     57  CB        25.1380   49.5860   19.7670 C.3   146  LYS146      0.0298
     58  CG        24.6680   49.5740   21.1930 C.3   146  LYS146      0.0038
     59  CD        24.4110   48.1560   21.6820 C.3   146  LYS146      0.0206
     60  CE        25.7010   47.3460   21.8610 C.3   146  LYS146      0.1093
     61  NZ        25.4600   45.9530   22.4020 N.3   146  LYS146     -0.1314
     62  N         22.5300   44.6620   26.3160 N.3   170  ASN170     -0.1240
     63  CA        23.2620   45.8270   26.8090 C.3   170  ASN170      0.1653
     64  C         22.4460   47.1020   26.7450 C.2   170  ASN170      0.2266
     65  O         22.9710   48.1920   26.5590 O.2   170  ASN170     -0.2867
     66  CB        24.5780   46.0040   26.0450 C.3   170  ASN170      0.1155
     67  CG        25.4000   44.7310   26.0000 C.2   170  ASN170      0.2627
     68  OD1       25.2650   43.9220   25.0830 O.2   170  ASN170     -0.2716
     69  ND2       26.2480   44.5400   27.0010 N.am  170  ASN170     -0.0877
     70  N         23.4530   49.7450   28.9110 N.3   173  TRP173     -0.1227
     71  CA        24.8120   50.1370   28.5200 C.3   173  TRP173      0.1737
     72  C         25.7780   50.5260   29.6520 C.2   173  TRP173      0.2595
     73  O         26.3370   51.6350   29.6770 O.2   173  TRP173     -0.2718
     74  CB        24.6940   51.2810   27.5010 C.3   173  TRP173      0.0564
     75  CG        25.9220   51.5570   26.7120 C.ar  173  TRP173      0.0003
     76  CD1       26.5170   52.7630   26.5270 C.ar  173  TRP173      0.0946
     77  CD2       26.6810   50.6180   25.9590 C.ar  173  TRP173      0.0152
     78  NE1       27.6040   52.6360   25.7000 N.ar  173  TRP173     -0.2442
     79  CE2       27.7240   51.3280   25.3350 C.ar  173  TRP173      0.0810
     80  CE3       26.5750   49.2460   25.7440 C.ar  173  TRP173      0.0012
     81  CZ2       28.6500   50.7210   24.5170 C.ar  173  TRP173      0.0191
     82  CZ3       27.4800   48.6510   24.9350 C.ar  173  TRP173      0.0001
     83  CH2       28.5130   49.3880   24.3250 C.ar  173  TRP173      0.0015
     84  N         25.9800   49.6080   30.5870 N.am  174  ASN174     -0.1974
     85  CA        26.8900   49.8540   31.6940 C.3   174  ASN174      0.1688
     86  C         26.4090   51.0420   32.5030 C.2   174  ASN174      0.2292
     87  O         27.2140   51.8300   32.9650 O.2   174  ASN174     -0.2864
     88  CB        28.2950   50.1500   31.1590 C.3   174  ASN174      0.1181
     89  CG        29.3720   50.0650   32.2400 C.2   174  ASN174      0.2629
     90  OD1       29.1830   50.5300   33.3580 O.2   174  ASN174     -0.2716
     91  ND2       30.5160   49.4880   31.8980 N.am  174  ASN174     -0.0877
     92  N         29.4170   65.0690   33.1990 N.3   182  ASP182     -0.1225
     93  CA        30.6960   65.6600   33.6030 C.3   182  ASP182      0.1805
     94  C         31.6530   64.5940   34.1100 C.2   182  ASP182      0.2598
     95  O         32.7160   64.9130   34.6460 O.2   182  ASP182     -0.2718
     96  CB        30.4890   66.7170   34.7090 C.3   182  ASP182      0.1424
     97  CG        29.9380   66.1210   36.0220 C.2   182  ASP182      0.3668
     98  OD1       30.6680   65.3610   36.7030 O.co2 182  ASP182     -0.2456
     99  OD2       28.7730   66.4200   36.3770 O.co2 182  ASP182     -0.2456
    100  N         31.2700   63.3300   33.9500 N.am  183  ALA183     -0.1966
    101  CA        32.1020   62.2230   34.4000 C.3   183  ALA183      0.1713
    102  C         32.5940   61.4480   33.1950 C.2   183  ALA183      0.2458
    103  O         32.1610   60.3240   32.9670 O.2   183  ALA183     -0.2730
    104  CB        31.3010   61.3140   35.3050 C.3   183  ALA183      0.0333
    105  N         33.5270   62.0300   32.4160 N.am  184  PRO184     -0.2727
    106  CA        34.0530   61.3570   31.2240 C.3   184  PRO184      0.1402
    107  C         34.1300   59.8290   31.3120 C.2   184  PRO184      0.2269
    108  O         34.5530   59.2540   32.3280 O.2   184  PRO184     -0.2865
    109  CB        35.4100   62.0310   31.0200 C.3   184  PRO184      0.0296
    110  CG        35.1070   63.4550   31.4080 C.3   184  PRO184      0.0237
    111  CD        34.3030   63.2560   32.7000 C.3   184  PRO184      0.0939
    112  N         34.7300   56.0940   28.6770 N.3   186  ARG186     -0.1245
    113  CA        35.5130   55.6340   27.5310 C.3   186  ARG186      0.1563
    114  C         34.8930   56.1530   26.2300 C.2   186  ARG186      0.2260
    115  O         33.6750   56.2920   26.1080 O.2   186  ARG186     -0.2867
    116  CB        35.5790   54.1000   27.4840 C.3   186  ARG186      0.0307
    117  CG        36.0390   53.4150   28.7690 C.3   186  ARG186      0.0489
    118  CD        37.1900   54.1610   29.4400 C.3   186  ARG186      0.2205
    119  NE        36.7090   55.0920   30.4640 N.pl3 186  ARG186     -0.0865
    120  CZ        37.4430   56.0560   31.0190 C.cat 186  ARG186      0.5346
    121  NH1       38.7100   56.2310   30.6440 N.pl3 186  ARG186      0.1354
    122  NH2       36.9150   56.8380   31.9600 N.pl3 186  ARG186      0.1354
    123  N         34.2410   54.7820   23.3670 N.3   188  TYR188     -0.1227
    124  CA        33.1990   53.9910   22.7110 C.3   188  TYR188      0.1736
    125  C         31.8820   53.9040   23.4680 C.2   188  TYR188      0.2595
    126  O         30.8270   53.8490   22.8470 O.2   188  TYR188     -0.2718
    127  CB        33.6870   52.5800   22.3660 C.3   188  TYR188      0.0548
    128  CG        33.7450   51.6210   23.5270 C.ar  188  TYR188     -0.0200
    129  CD1       34.7680   51.6940   24.4820 C.ar  188  TYR188     -0.0009
    130  CD2       32.7800   50.6220   23.6740 C.ar  188  TYR188     -0.0009
    131  CE1       34.8280   50.7820   25.5600 C.ar  188  TYR188      0.0417
    132  CE2       32.8280   49.7080   24.7490 C.ar  188  TYR188      0.0417
    133  CZ        33.8540   49.7950   25.6790 C.ar  188  TYR188      0.1957
    134  OH        33.9080   48.8840   26.7050 O.3   188  TYR188     -0.2866
    135  N         31.9100   53.8820   24.7970 N.am  189  VAL189     -0.1980
    136  CA        30.6400   53.8290   25.5170 C.3   189  VAL189      0.1595
    137  C         29.9380   55.1760   25.3320 C.2   189  VAL189      0.2287
    138  O         28.7100   55.2540   25.2610 O.2   189  VAL189     -0.2864
    139  CB        30.8200   53.5370   27.0260 C.3   189  VAL189      0.0276
    140  CG1       31.9900   54.2970   27.5650 C.3   189  VAL189      0.0022
    141  CG2       29.5600   53.9530   27.7920 C.3   189  VAL189      0.0022
    142  N         28.2410   54.8680   21.6780 N.3   192  TYR192     -0.1241
    143  CA        27.0440   54.0390   21.6190 C.3   192  TYR192      0.1605
    144  C         25.9250   54.4430   22.5870 C.2   192  TYR192      0.2264
    145  O         24.7930   53.9760   22.4630 O.2   192  TYR192     -0.2867
    146  CB        27.4040   52.5730   21.8620 C.3   192  TYR192      0.0534
    147  CG        28.1490   51.9170   20.7280 C.ar  192  TYR192     -0.0201
    148  CD1       27.5410   51.7180   19.4890 C.ar  192  TYR192     -0.0009
    149  CD2       29.4660   51.5130   20.8820 C.ar  192  TYR192     -0.0009
    150  CE1       28.2240   51.1360   18.4350 C.ar  192  TYR192      0.0417
    151  CE2       30.1640   50.9330   19.8300 C.ar  192  TYR192      0.0417
    152  CZ        29.5380   50.7500   18.6140 C.ar  192  TYR192      0.1957
    153  OH        30.2450   50.2090   17.5650 O.3   192  TYR192     -0.2866
    154  N         24.0000   43.1120   31.1370 N.3   218  ASP218     -0.1239
    155  CA        24.1220   44.5350   30.9290 C.3   218  ASP218      0.1674
    156  C         22.7380   45.0370   30.5530 C.2   218  ASP218      0.2266
    157  O         22.5680   46.1220   30.0020 O.2   218  ASP218     -0.2867
    158  CB        25.1290   44.8110   29.8260 C.3   218  ASP218      0.1410
    159  CG        25.5340   46.2520   29.7820 C.2   218  ASP218      0.3668
    160  OD1       25.6100   46.8420   30.8830 O.co2 218  ASP218     -0.2456
    161  OD2       25.7780   46.7900   28.6690 O.co2 218  ASP218     -0.2456
@<TRIPOS>BOND
     1    52    50   ar
     2    51    50   ar
     3    50    49    1
     4    49    46    1
     5    44    41    1
     6    46    45    1
     7    46    47    1
     8    45    42   am
     9   153   152    1
    10    53    47   am
    11    53    54    1
    12    47    48    2
    13    55    56    2
    14    55    54    1
    15    41    42    1
    16    41    40    1
    17    42    43    2
    18   150   152   ar
    19   150   148   ar
    20   152   151   ar
    21    54    57    1
    22    40    34   am
    23   148   147   ar
    24    57    58    1
    25   151   149   ar
    26    34    35    2
    27    34    33    1
    28    32    33    1
    29   147   149   ar
    30   147   146    1
    31    33    36    1
    32    31    30    1
    33    58    59    1
    34    30    29    1
    35   143   142    1
    36   143   146    1
    37   143   144    1
    38    36    37    1
    39    59    60    1
    40    60    61    1
    41   127   124    1
    42   127   128    1
    43   145   144    2
    44   124   123    1
    45   124   125    1
    46   126   125    2
    47    37    38   ar
    48    37    39   ar
    49    29    28    1
    50   125   135   am
    51   128   130   ar
    52   128   129   ar
    53   130   132   ar
    54    28    25    1
    55    83    81   ar
    56    83    82   ar
    57   129   131   ar
    58    81    79   ar
    59   132   133   ar
    60   135   136    1
    61    82    80   ar
    62    68    67    2
    63    25    26    1
    64    25    24    1
    65   138   137    2
    66    27    26    2
    67   137   136    1
    68    79    78   ar
    69    79    77   ar
    70   136   139    1
    71   131   133   ar
    72   133   134    1
    73    78    76   ar
    74    80    77   ar
    75    24    18   am
    76    77    75   ar
    77    67    66    1
    78    67    69   am
    79    66    63    1
    80   115   114    2
    81   114   113    1
    82    62    63    1
    83    22    20    1
    84    76    75   ar
    85    65    64    2
    86    75    74    1
    87    64    63    1
    88   139   140    1
    89   139   141    1
    90    16    17    1
    91    18    17    1
    92    18    19    2
    93   116   113    1
    94   116   117    1
    95    74    71    1
    96   113   112    1
    97    17    20    1
    98    20    21    1
    99    71    70    1
   100    71    72    1
   101    21    23    1
   102   161   159   ar
   103   117   118    1
   104   118   119    1
   105    72    73    2
   106    72    84   am
   107   159   158    1
   108   159   160   ar
   109   158   155    1
   110   157   156    2
   111   119   120    2
   112   156   155    1
   113    84    85    1
   114   121   120    1
   115   155   154    1
   116   120   122    1
   117   109   106    1
   118   109   110    1
   119    88    85    1
   120    88    89    1
   121   106   107    1
   122   106   105    1
   123   107   108    2
   124   110   111    1
   125    85    86    1
   126    91    89   am
   127    89    90    2
   128   105   111    1
   129   105   102   am
   130    86    87    2
   131   103   102    2
   132   102   101    1
   133    92    93    1
   134    93    94    1
   135    93    96    1
   136   100    94   am
   137   100   101    1
   138    94    95    2
   139   101   104    1
   140    96    97    1
   141     4     3    2
   142    97    99   ar
   143    97    98   ar
   144     1     2    1
   145     3     2    1
   146     3    10   am
   147    11    12    1
   148    11    10    1
   149    11    14    1
   150    12    13    2
   151     2     5    1
   152     5     6    1
   153    14    15    1
   154     6     7    1
   155     7     8    1
   156     8     9    1
