@<TRIPOS>MOLECULE
tmp/1supA00.pdb
 97 93 0 0 0
SMALL
GASTEIGER

@<TRIPOS>ATOM
      1  N         22.0890   -8.9500   17.5000 N.3    64  HIS64      -0.1241
      2  CA        21.3390   -7.7050   17.5910 C.3    64  HIS64       0.1621
      3  C         20.1540   -7.5820   16.6760 C.2    64  HIS64       0.2264
      4  O         19.0150   -7.3320   17.1460 O.2    64  HIS64      -0.2867
      5  CB        22.2410   -6.4820   17.6080 C.3    64  HIS64       0.0745
      6  CG        23.1970   -6.2890   18.7450 C.ar   64  HIS64       0.0817
      7  ND1       24.1780   -5.3130   18.6370 N.ar   64  HIS64      -0.2268
      8  CD2       23.5890   -7.0340   19.8210 C.ar   64  HIS64       0.1154
      9  CE1       24.9640   -5.3640   19.6950 C.ar   64  HIS64       0.1986
     10  NE2       24.5990   -6.3940   20.4350 N.ar   64  HIS64      -0.2212
     11  N         16.1200   -7.3120   17.6640 N.3    68  VAL68      -0.1245
     12  CA        15.3050   -6.1440   17.1750 C.3    68  VAL68       0.1561
     13  C         14.1080   -6.6760   16.3830 C.2    68  VAL68       0.2260
     14  O         12.9900   -6.2040   16.5350 O.2    68  VAL68      -0.2867
     15  CB        16.2710   -5.2120   16.4020 C.3    68  VAL68       0.0252
     16  CG1       15.5420   -4.1390   15.5440 C.3    68  VAL68       0.0019
     17  CG2       17.2660   -4.5190   17.3370 C.3    68  VAL68       0.0019
     18  N         18.4640    0.4850   14.4670 N.3   125  SER125     -0.1202
     19  CA        18.8960    0.4040   15.9060 C.3   125  SER125      0.2020
     20  C         20.4110    0.4670   15.9270 C.2   125  SER125      0.2619
     21  O         21.1920   -0.4520   16.2100 O.2   125  SER125     -0.2717
     22  CB        18.2990   -0.7980   16.6110 C.3   125  SER125      0.2103
     23  OG        16.9380   -0.7170   16.8320 O.3   125  SER125     -0.2182
     24  N         20.8830    1.6380   15.4650 N.am  126  LEU126     -0.1965
     25  CA        22.3150    1.9350   15.3040 C.3   126  LEU126      0.1728
     26  C         22.4810    3.4580   15.3850 C.2   126  LEU126      0.2616
     27  O         21.6060    4.2890   15.1010 O.2   126  LEU126     -0.2715
     28  CB        22.8470    1.3180   13.9840 C.3   126  LEU126      0.0311
     29  CG        22.2590    1.7420   12.6410 C.3   126  LEU126      0.0022
     30  CD1       22.9390    2.9630   12.0670 C.3   126  LEU126      0.0001
     31  CD2       22.2740    0.5430   11.7010 C.3   126  LEU126      0.0001
     32  N         23.7280    3.8180   15.6630 N.am  127  GLY127     -0.1955
     33  CA        24.0580    5.2520   15.7090 C.3   127  GLY127      0.1869
     34  C         25.5430    5.4320   15.9970 C.2   127  GLY127      0.2309
     35  O         26.2120    4.5790   16.6150 O.2   127  GLY127     -0.2863
     36  N         17.2200    4.3870   16.8340 N.3   152  ALA152     -0.1245
     37  CA        17.5930    4.5320   18.2760 C.3   152  ALA152      0.1562
     38  C         18.2240    5.8910   18.5070 C.2   152  ALA152      0.2260
     39  O         18.9850    6.4600   17.6580 O.2   152  ALA152     -0.2867
     40  CB        18.6440    3.4190   18.5760 C.3   152  ALA152      0.0290
     41  N         20.4000    6.6050   20.7910 N.3   154  GLY154     -0.1210
     42  CA        21.7610    6.4450   21.3110 C.3   154  GLY154      0.1956
     43  C         21.7050    6.1220   22.8100 C.2   154  GLY154      0.2611
     44  O         20.7560    6.3960   23.5330 O.2   154  GLY154     -0.2717
     45  N         22.8800    5.5800   23.1980 N.am  155  ASN155     -0.1974
     46  CA        23.0500    5.1500   24.6190 C.3   155  ASN155      0.1688
     47  C         24.1960    5.9230   25.2910 C.2   155  ASN155      0.2292
     48  O         24.9430    5.3990   26.1340 O.2   155  ASN155     -0.2864
     49  CB        23.2920    3.6180   24.6720 C.3   155  ASN155      0.1181
     50  CG        22.2020    2.7580   24.0250 C.2   155  ASN155      0.2629
     51  OD1       21.0450    3.0980   24.0240 O.2   155  ASN155     -0.2716
     52  ND2       22.7660    1.7060   23.4350 N.am  155  ASN155     -0.0877
     53  N         17.7970   -7.6680   26.5370 N.3   217  TYR217     -0.1227
     54  CA        18.7800   -6.6290   26.3000 C.3   217  TYR217      0.1736
     55  C         18.2980   -5.2580   26.7220 C.2   217  TYR217      0.2595
     56  O         17.0900   -5.0320   26.8000 O.2   217  TYR217     -0.2718
     57  CB        19.2640   -6.6100   24.8320 C.3   217  TYR217      0.0548
     58  CG        20.0720   -7.7380   24.2850 C.ar  217  TYR217     -0.0200
     59  CD1       20.8820   -8.6150   25.0220 C.ar  217  TYR217     -0.0009
     60  CD2       20.1480   -7.8790   22.8780 C.ar  217  TYR217     -0.0009
     61  CE1       21.6570   -9.6040   24.4580 C.ar  217  TYR217      0.0417
     62  CE2       20.9810   -8.8110   22.2900 C.ar  217  TYR217      0.0417
     63  CZ        21.7100   -9.6770   23.0600 C.ar  217  TYR217      0.1957
     64  OH        22.5610  -10.5880   22.4890 O.3   217  TYR217     -0.2866
     65  N         19.2850   -4.3990   27.0080 N.am  218  ASN218     -0.1960
     66  CA        19.0130   -2.9830   27.2880 C.3   218  ASN218      0.1819
     67  C         19.6000   -2.1240   26.1480 C.2   218  ASN218      0.2622
     68  O         20.7410   -2.3020   25.7150 O.2   218  ASN218     -0.2715
     69  CB        19.7590   -2.5490   28.5870 C.3   218  ASN218      0.1195
     70  CG        19.3150   -3.0690   29.8890 C.2   218  ASN218      0.2630
     71  OD1       18.2550   -3.5650   30.1400 O.2   218  ASN218     -0.2716
     72  ND2       20.1690   -2.6910   30.9090 N.am  218  ASN218     -0.0877
     73  N         18.8400   -1.0460   25.8620 N.am  219  GLY219     -0.1940
     74  CA        19.3510   -0.0710   24.9000 C.3   219  GLY219      0.2014
     75  C         18.1960    0.6000   24.1880 C.2   219  GLY219      0.2640
     76  O         17.0460    0.1810   24.0880 O.2   219  GLY219     -0.2714
     77  N         18.6280    1.7970   23.6900 N.am  220  THR220     -0.1936
     78  CA        17.7040    2.4780   22.7250 C.3   220  THR220      0.2028
     79  C         17.5290    1.6920   21.4340 C.2   220  THR220      0.2643
     80  O         16.4610    1.8680   20.8190 O.2   220  THR220     -0.2714
     81  CB        18.1420    3.9710   22.4480 C.3   220  THR220      0.1808
     82  OG1       19.4440    3.9060   21.8390 O.3   220  THR220     -0.2208
     83  CG2       18.0640    4.8490   23.7200 C.3   220  THR220      0.0379
     84  N         18.4530    0.7180   21.1690 N.am  221  SER221     -0.1935
     85  CA        18.2010   -0.2040   20.0540 C.3   221  SER221      0.2055
     86  C         17.0070   -1.1020   20.2850 C.2   221  SER221      0.2642
     87  O         16.4810   -1.6480   19.3090 O.2   221  SER221     -0.2714
     88  CB        19.4730   -0.9700   19.9060 C.3   221  SER221      0.2130
     89  OG        20.4720   -0.4600   19.1160 O.3   221  SER221     -0.2179
     90  N         16.6380   -1.3150   21.5470 N.am  222  MET222     -0.1976
     91  CA        15.4740   -2.1330   21.9080 C.3   222  MET222      0.1605
     92  C         14.1850   -1.3080   21.9240 C.2   222  MET222      0.2287
     93  O         13.0930   -1.8190   21.6850 O.2   222  MET222     -0.2864
     94  CB        15.7500   -2.7750   23.2900 C.3   222  MET222      0.0413
     95  CG        16.5450   -4.0410   23.2500 C.3   222  MET222      0.0598
     96  SD        18.2560   -3.7990   22.6910 S.3   222  MET222     -0.1393
     97  CE        18.1920   -4.4740   21.0410 C.3   222  MET222      0.0692
@<TRIPOS>BOND
     1    31    29    1
     2    30    29    1
     3    29    28    1
     4    28    25    1
     5    18    19    1
     6    27    26    2
     7    25    26    1
     8    25    24    1
     9    26    32   am
    10    24    20   am
    11    16    15    1
    12    32    33    1
    13    33    34    1
    14    19    20    1
    15    19    22    1
    16    20    21    2
    17    34    35    2
    18    13    14    2
    19    13    12    1
    20    15    12    1
    21    15    17    1
    22    22    23    1
    23     3     4    2
    24     3     2    1
    25    36    37    1
    26    12    11    1
    27     1     2    1
    28     2     5    1
    29     5     6    1
    30    39    38    2
    31    37    38    1
    32    37    40    1
    33     7     6   ar
    34     7     9   ar
    35     6     8   ar
    36    89    88    1
    37    87    86    2
    38     9    10   ar
    39     8    10   ar
    40    88    85    1
    41    85    86    1
    42    85    84    1
    43    86    90   am
    44    41    42    1
    45    80    79    2
    46    97    96    1
    47    84    79   am
    48    42    43    1
    49    79    78    1
    50    90    91    1
    51    93    92    2
    52    82    81    1
    53    91    92    1
    54    91    94    1
    55    62    60   ar
    56    62    63   ar
    57    81    78    1
    58    81    83    1
    59    64    63    1
    60    96    95    1
    61    78    77    1
    62    43    45   am
    63    43    44    2
    64    60    58   ar
    65    63    61   ar
    66    45    46    1
    67    95    94    1
    68    52    50   am
    69    77    75   am
    70    51    50    2
    71    50    49    1
    72    76    75    2
    73    75    74    1
    74    58    57    1
    75    58    59   ar
    76    61    59   ar
    77    46    49    1
    78    46    47    1
    79    57    54    1
    80    74    73    1
    81    47    48    2
    82    68    67    2
    83    73    67   am
    84    67    66    1
    85    54    53    1
    86    54    55    1
    87    55    56    2
    88    55    65   am
    89    65    66    1
    90    66    69    1
    91    69    70    1
    92    70    71    2
    93    70    72   am
