@<TRIPOS>MOLECULE
tmp/1suqA00.pdb
 170 168 0 0 0
SMALL
GASTEIGER

@<TRIPOS>ATOM
      1  N        140.5820  -17.3670   76.2890 N.3    95  PRO95      -0.2116
      2  CA       139.6750  -18.0050   75.3400 C.3    95  PRO95       0.1372
      3  C        138.7500  -18.9180   76.1110 C.2    95  PRO95       0.2244
      4  O        139.1770  -19.5730   77.0430 O.2    95  PRO95      -0.2868
      5  CB       140.6250  -18.7630   74.4160 C.3    95  PRO95       0.0268
      6  CG       141.7540  -19.0810   75.2800 C.3    95  PRO95       0.0207
      7  CD       141.9610  -17.8320   76.0860 C.3    95  PRO95       0.0892
      8  N        134.2530  -22.6570   72.6160 N.3    99  GLY99      -0.1210
      9  CA       134.5050  -22.2610   71.2450 C.3    99  GLY99       0.1956
     10  C        135.8770  -22.6840   70.7650 C.2    99  GLY99       0.2612
     11  O        136.4460  -22.0700   69.8670 O.2    99  GLY99      -0.2717
     12  N        136.4250  -23.7200   71.3850 N.am  100  LEU100     -0.1965
     13  CA       137.7120  -24.2400   70.9650 C.3   100  LEU100      0.1728
     14  C        137.4170  -25.3700   69.9780 C.2   100  LEU100      0.2616
     15  O        136.3860  -26.0390   70.0650 O.2   100  LEU100     -0.2715
     16  CB       138.4750  -24.7820   72.1640 C.3   100  LEU100      0.0311
     17  CG       139.0480  -23.7550   73.1290 C.3   100  LEU100      0.0022
     18  CD1      139.3870  -24.4480   74.4330 C.3   100  LEU100      0.0001
     19  CD2      140.2580  -23.0960   72.5230 C.3   100  LEU100      0.0001
     20  N        138.3160  -25.5850   69.0330 N.am  101  LYS101     -0.1977
     21  CA       138.1250  -26.6280   68.0360 C.3   101  LYS101      0.1596
     22  C        138.7510  -27.9100   68.5740 C.2   101  LYS101      0.2287
     23  O        139.7470  -27.8660   69.2960 O.2   101  LYS101     -0.2864
     24  CB       138.8040  -26.1930   66.7360 C.3   101  LYS101      0.0298
     25  CG       138.4220  -26.9450   65.4820 C.3   101  LYS101      0.0038
     26  CD       139.2500  -26.4260   64.3090 C.3   101  LYS101      0.0206
     27  CE       139.1110  -27.3040   63.0780 C.3   101  LYS101      0.1093
     28  NZ       140.0480  -26.8800   61.9960 N.3   101  LYS101     -0.1314
     29  N        141.0790  -30.6380   68.9880 N.3   103  LYS103     -0.1245
     30  CA       142.4150  -30.9910   68.5100 C.3   103  LYS103      0.1561
     31  C        142.7880  -32.3480   69.1800 C.2   103  LYS103      0.2260
     32  O        142.2710  -32.6790   70.2540 O.2   103  LYS103     -0.2867
     33  CB       143.4270  -29.8650   68.8240 C.3   103  LYS103      0.0271
     34  CG       143.1490  -28.5330   68.0960 C.3   103  LYS103      0.0035
     35  CD       142.9760  -28.6910   66.5860 C.3   103  LYS103      0.0206
     36  CE       142.7180  -27.3420   65.9220 C.3   103  LYS103      0.1093
     37  NZ       142.5290  -27.4070   64.4440 N.3   103  LYS103     -0.1314
     38  N        148.3120  -32.5950   72.3700 N.3   106  VAL106     -0.1245
     39  CA       148.5400  -31.2500   72.8840 C.3   106  VAL106      0.1561
     40  C        149.8360  -31.2440   73.6780 C.2   106  VAL106      0.2260
     41  O        150.3520  -32.2940   74.0070 O.2   106  VAL106     -0.2867
     42  CB       147.3990  -30.8280   73.8230 C.3   106  VAL106      0.0252
     43  CG1      147.5420  -29.3720   74.1740 C.3   106  VAL106      0.0019
     44  CG2      146.0560  -31.0940   73.1830 C.3   106  VAL106      0.0019
     45  N        151.9610  -28.4340   76.5900 N.3   108  VAL108     -0.1245
     46  CA       152.1610  -27.1070   77.1410 C.3   108  VAL108      0.1561
     47  C        153.6440  -26.9700   77.3920 C.2   108  VAL108      0.2260
     48  O        154.2350  -27.8260   78.0340 O.2   108  VAL108     -0.2867
     49  CB       151.3760  -26.9050   78.4670 C.3   108  VAL108      0.0252
     50  CG1      151.6950  -28.0020   79.4590 C.3   108  VAL108      0.0019
     51  CG2      151.7240  -25.5630   79.0630 C.3   108  VAL108      0.0019
     52  N        148.5810  -25.2810   66.0290 N.3   179  VAL179     -0.1245
     53  CA       148.0490  -24.1150   66.7040 C.3   179  VAL179      0.1561
     54  C        148.7010  -23.8360   68.0670 C.2   179  VAL179      0.2260
     55  O        148.7960  -24.6870   68.9580 O.2   179  VAL179     -0.2867
     56  CB       146.5020  -24.2100   66.8540 C.3   179  VAL179      0.0252
     57  CG1      145.9490  -25.1130   65.7820 C.3   179  VAL179      0.0019
     58  CG2      146.1040  -24.6730   68.2620 C.3   179  VAL179      0.0019
     59  N        149.0840  -20.9980   71.3870 N.3   181  TYR181     -0.1241
     60  CA       148.4140  -20.0180   72.2210 C.3   181  TYR181      0.1605
     61  C        149.3540  -19.8160   73.3940 C.2   181  TYR181      0.2264
     62  O        149.7580  -20.8020   74.0030 O.2   181  TYR181     -0.2867
     63  CB       147.0950  -20.5930   72.7280 C.3   181  TYR181      0.0534
     64  CG       146.5520  -19.8970   73.9510 C.ar  181  TYR181     -0.0201
     65  CD1      145.2870  -19.3220   73.9480 C.ar  181  TYR181     -0.0009
     66  CD2      147.2920  -19.8180   75.1230 C.ar  181  TYR181     -0.0009
     67  CE1      144.7780  -18.6860   75.0830 C.ar  181  TYR181      0.0417
     68  CE2      146.7920  -19.1810   76.2630 C.ar  181  TYR181      0.0417
     69  CZ       145.5400  -18.6210   76.2310 C.ar  181  TYR181      0.1957
     70  OH       145.0550  -18.0000   77.3480 O.3   181  TYR181     -0.2866
     71  N        151.1500  -23.1460   75.1530 N.3   188  TYR188     -0.1227
     72  CA       150.4320  -24.3700   74.8190 C.3   188  TYR188      0.1736
     73  C        150.3880  -24.6850   73.3290 C.2   188  TYR188      0.2595
     74  O        150.0930  -23.8160   72.5240 O.2   188  TYR188     -0.2718
     75  CB       149.0160  -24.2530   75.3480 C.3   188  TYR188      0.0548
     76  CG       148.9410  -23.7150   76.7630 C.ar  188  TYR188     -0.0200
     77  CD1      149.6400  -22.5590   77.1360 C.ar  188  TYR188     -0.0009
     78  CD2      148.1430  -24.3320   77.7210 C.ar  188  TYR188     -0.0009
     79  CE1      149.5370  -22.0370   78.4270 C.ar  188  TYR188      0.0417
     80  CE2      148.0250  -23.8170   79.0160 C.ar  188  TYR188      0.0417
     81  CZ       148.7260  -22.6660   79.3590 C.ar  188  TYR188      0.1957
     82  OH       148.6000  -22.1210   80.6130 O.3   188  TYR188     -0.2866
     83  N        150.6530  -25.9370   72.9600 N.am  189  VAL189     -0.1966
     84  CA       150.6570  -26.3460   71.5500 C.3   189  VAL189      0.1727
     85  C        149.6970  -27.5080   71.2650 C.2   189  VAL189      0.2616
     86  O        149.8540  -28.5840   71.8240 O.2   189  VAL189     -0.2715
     87  CB       152.0640  -26.8140   71.1040 C.3   189  VAL189      0.0290
     88  CG1      152.1380  -26.7740   69.5930 C.3   189  VAL189      0.0023
     89  CG2      153.1760  -25.9710   71.7560 C.3   189  VAL189      0.0023
     90  N        148.7210  -27.3180   70.3860 N.am  190  GLY190     -0.1955
     91  CA       147.7910  -28.4020   70.0960 C.3   190  GLY190      0.1869
     92  C        147.8000  -28.7860   68.6300 C.2   190  GLY190      0.2309
     93  O        147.8270  -27.9170   67.7770 O.2   190  GLY190     -0.2863
     94  N        146.4100  -35.6790   79.7500 N.3   225  PRO225     -0.2116
     95  CA       145.0140  -35.8280   79.2780 C.3   225  PRO225      0.1372
     96  C        143.8960  -36.2010   80.2420 C.2   225  PRO225      0.2244
     97  O        143.4790  -37.3830   80.2540 O.2   225  PRO225     -0.2868
     98  CB       145.1540  -36.8980   78.2080 C.3   225  PRO225      0.0268
     99  CG       146.0030  -37.8600   78.9100 C.3   225  PRO225      0.0207
    100  CD       147.1160  -36.9490   79.4020 C.3   225  PRO225      0.0892
    101  N        143.6630  -31.6230   81.0810 N.3   227  PHE227     -0.1227
    102  CA       144.5440  -30.5260   81.3010 C.3   227  PHE227      0.1736
    103  C        143.8730  -29.5280   82.2380 C.2   227  PHE227      0.2595
    104  O        142.6500  -29.2710   82.2100 O.2   227  PHE227     -0.2718
    105  CB       144.8920  -29.9540   79.9390 C.3   227  PHE227      0.0547
    106  CG       145.9640  -30.7530   79.2260 C.ar  227  PHE227     -0.0202
    107  CD1      147.1770  -30.9960   79.8630 C.ar  227  PHE227     -0.0042
    108  CD2      145.7470  -31.2810   77.9670 C.ar  227  PHE227     -0.0042
    109  CE1      148.1600  -31.7670   79.2360 C.ar  227  PHE227     -0.0003
    110  CE2      146.7120  -32.0370   77.3300 C.ar  227  PHE227     -0.0003
    111  CZ       147.9290  -32.2820   77.9680 C.ar  227  PHE227     -0.0000
    112  N        144.7060  -28.9870   83.0900 N.am  228  LEU228     -0.1966
    113  CA       144.3360  -28.0350   84.0850 C.3   228  LEU228      0.1728
    114  C        144.6490  -26.7130   83.4980 C.2   228  LEU228      0.2616
    115  O        145.7840  -26.2440   83.5940 O.2   228  LEU228     -0.2715
    116  CB       145.2200  -28.2160   85.3280 C.3   228  LEU228      0.0311
    117  CG       146.7390  -28.2580   85.3850 C.3   228  LEU228      0.0022
    118  CD1      147.3720  -27.8140   84.0700 C.3   228  LEU228      0.0001
    119  CD2      147.1370  -27.3520   86.5540 C.3   228  LEU228      0.0001
    120  N        143.6710  -26.1200   82.8540 N.am  229  TRP229     -0.1974
    121  CA       143.9080  -24.8240   82.3030 C.3   229  TRP229      0.1640
    122  C        143.2580  -23.9090   83.3230 C.2   229  TRP229      0.2290
    123  O        142.8030  -24.3890   84.3650 O.2   229  TRP229     -0.2864
    124  CB       143.3460  -24.7790   80.9000 C.3   229  TRP229      0.0576
    125  CG       143.6180  -23.5550   80.1580 C.ar  229  TRP229      0.0006
    126  CD1      144.8030  -22.8650   80.0420 C.ar  229  TRP229      0.0946
    127  CD2      142.6620  -22.8520   79.4050 C.ar  229  TRP229      0.0152
    128  NE1      144.6120  -21.7580   79.2480 N.ar  229  TRP229     -0.2442
    129  CE2      143.2990  -21.7290   78.8530 C.ar  229  TRP229      0.0810
    130  CE3      141.3020  -23.0530   79.1620 C.ar  229  TRP229      0.0012
    131  CZ2      142.6290  -20.8330   78.0550 C.ar  229  TRP229      0.0191
    132  CZ3      140.6410  -22.1700   78.3790 C.ar  229  TRP229      0.0001
    133  CH2      141.2960  -21.0650   77.8360 C.ar  229  TRP229      0.0015
    134  N        140.4160  -29.7160   80.7710 N.3   234  LEU234     -0.1231
    135  CA       140.5100  -29.9040   79.3340 C.3   234  LEU234      0.1693
    136  C        140.8440  -31.2830   78.8360 C.2   234  LEU234      0.2592
    137  O        141.9360  -31.7870   79.0730 O.2   234  LEU234     -0.2718
    138  CB       141.5240  -28.9110   78.7500 C.3   234  LEU234      0.0284
    139  CG       141.1780  -27.4130   78.7150 C.3   234  LEU234      0.0019
    140  CD1      142.4230  -26.5980   78.4440 C.3   234  LEU234      0.0001
    141  CD2      140.1160  -27.1570   77.6630 C.3   234  LEU234      0.0001
    142  N        139.9000  -31.8650   78.1040 N.am  235  HIS235     -0.1962
    143  CA       140.0590  -33.1950   77.5200 C.3   235  HIS235      0.1772
    144  C        139.9220  -33.0630   76.0040 C.2   235  HIS235      0.2462
    145  O        139.1680  -32.2190   75.5280 O.2   235  HIS235     -0.2730
    146  CB       138.9650  -34.1480   78.0160 C.3   235  HIS235      0.0785
    147  CG       139.0360  -34.4820   79.4770 C.ar  235  HIS235      0.0821
    148  ND1      139.6400  -35.6290   79.9470 N.ar  235  HIS235     -0.2267
    149  CD2      138.4980  -33.8710   80.5620 C.ar  235  HIS235      0.1154
    150  CE1      139.4600  -35.7160   81.2520 C.ar  235  HIS235      0.1986
    151  NE2      138.7720  -34.6610   81.6520 N.ar  235  HIS235     -0.2212
    152  N        140.6230  -33.9210   75.2310 N.am  236  PRO236     -0.2727
    153  CA       140.6750  -34.0080   73.7620 C.3   236  PRO236      0.1402
    154  C        139.4200  -33.8320   72.9230 C.2   236  PRO236      0.2269
    155  O        139.5160  -33.4420   71.7670 O.2   236  PRO236     -0.2865
    156  CB       141.3170  -35.3610   73.5210 C.3   236  PRO236      0.0296
    157  CG       142.3090  -35.4200   74.6090 C.3   236  PRO236      0.0237
    158  CD       141.5110  -34.9380   75.8200 C.3   236  PRO236      0.0939
    159  N        133.1110  -29.3960   71.7330 N.3   318  TYR318     -0.1241
    160  CA       133.7400  -28.2780   71.0530 C.3   318  TYR318      0.1605
    161  C        133.0230  -27.6900   69.8420 C.2   318  TYR318      0.2264
    162  O        131.9080  -28.0950   69.4830 O.2   318  TYR318     -0.2867
    163  CB       135.1470  -28.6730   70.6630 C.3   318  TYR318      0.0534
    164  CG       136.0290  -28.8270   71.8590 C.ar  318  TYR318     -0.0201
    165  CD1      137.2980  -29.3650   71.7450 C.ar  318  TYR318     -0.0009
    166  CD2      135.6100  -28.4110   73.1110 C.ar  318  TYR318     -0.0009
    167  CE1      138.1260  -29.4820   72.8450 C.ar  318  TYR318      0.0417
    168  CE2      136.4400  -28.5250   74.2230 C.ar  318  TYR318      0.0417
    169  CZ       137.7000  -29.0610   74.0830 C.ar  318  TYR318      0.1957
    170  OH       138.5290  -29.1660   75.1810 O.3   318  TYR318     -0.2866
@<TRIPOS>BOND
     1    28    27    1
     2    27    26    1
     3    26    25    1
     4    37    36    1
     5    25    24    1
     6    57    56    1
     7    36    35    1
     8    52    53    1
     9    35    34    1
    10    53    56    1
    11    53    54    1
    12    24    21    1
    13    56    58    1
    14    93    92    2
    15    21    22    1
    16    21    20    1
    17    54    55    2
    18    34    33    1
    19    30    33    1
    20    30    29    1
    21    30    31    1
    22    22    23    2
    23    92    91    1
    24    20    14   am
    25    31    32    2
    26   162   161    2
    27    88    87    1
    28   161   160    1
    29    11    10    2
    30    14    15    2
    31    14    13    1
    32    91    90    1
    33    90    85   am
    34   163   160    1
    35   163   164    1
    36    10     9    1
    37    10    12   am
    38    13    12    1
    39    13    16    1
    40   160   159    1
    41    87    84    1
    42    87    89    1
    43     9     8    1
    44    85    84    1
    45    85    86    2
    46    59    60    1
    47    84    83    1
    48   165   164   ar
    49   165   167   ar
    50   155   154    2
    51   164   166   ar
    52    16    17    1
    53    60    63    1
    54    60    61    1
    55    38    39    1
    56    19    17    1
    57    74    73    2
    58    63    64    1
    59   167   169   ar
    60    39    40    1
    61    39    42    1
    62   154   153    1
    63    83    73   am
    64   166   168   ar
    65    17    18    1
    66    44    42    1
    67    73    72    1
    68    61    62    2
    69   156   153    1
    70   156   157    1
    71    40    41    2
    72   153   152    1
    73    42    43    1
    74    65    64   ar
    75    65    67   ar
    76    64    66   ar
    77   169   168   ar
    78   169   170    1
    79     5     6    1
    80     5     2    1
    81   157   158    1
    82    72    71    1
    83    72    75    1
    84    67    69   ar
    85    66    68   ar
    86   152   158    1
    87   152   144   am
    88     6     7    1
    89     2     3    1
    90     2     1    1
    91    75    76    1
    92   145   144    2
    93   144   143    1
    94     7     1    1
    95     3     4    2
    96    69    68   ar
    97    69    70    1
    98    45    46    1
    99    76    77   ar
   100    76    78   ar
   101    77    79   ar
   102    46    47    1
   103    46    49    1
   104   110   108   ar
   105   110   111   ar
   106    47    48    2
   107   143   146    1
   108   143   142    1
   109   141   139    1
   110    78    80   ar
   111   133   131   ar
   112   133   132   ar
   113   108   106   ar
   114   111   109   ar
   115   146   147    1
   116   131   129   ar
   117   142   136   am
   118    98    99    1
   119    98    95    1
   120   132   130   ar
   121    79    81   ar
   122   140   139    1
   123    49    51    1
   124    49    50    1
   125   139   138    1
   126   138   135    1
   127   136   137    2
   128   136   135    1
   129   129   128   ar
   130   129   127   ar
   131    99   100    1
   132    80    81   ar
   133   130   127   ar
   134   106   107   ar
   135   106   105    1
   136   109   107   ar
   137   128   126   ar
   138    95    94    1
   139    95    96    1
   140   135   134    1
   141    81    82    1
   142   100    94    1
   143   127   125   ar
   144   147   148   ar
   145   147   149   ar
   146   105   102    1
   147   148   150   ar
   148   126   125   ar
   149   125   124    1
   150    96    97    2
   151   149   151   ar
   152   124   121    1
   153   101   102    1
   154   150   151   ar
   155   102   103    1
   156   104   103    2
   157   103   112   am
   158   121   120    1
   159   121   122    1
   160   120   114   am
   161   112   113    1
   162   122   123    2
   163   114   115    2
   164   114   113    1
   165   118   117    1
   166   113   116    1
   167   116   117    1
   168   117   119    1
