@<TRIPOS>MOLECULE
tmp/1suwC01.pdb
 177 166 0 0 0
SMALL
GASTEIGER

@<TRIPOS>ATOM
      1  N        105.8550   11.0190  128.4820 N.3     8  LYS8       -0.1245
      2  CA       104.5850   10.4830  128.0160 C.3     8  LYS8        0.1561
      3  C        104.6660    8.9740  128.2780 C.2     8  LYS8        0.2260
      4  O        103.8460    8.4030  129.0040 O.2     8  LYS8       -0.2867
      5  CB       104.4380   10.7730  126.5170 C.3     8  LYS8        0.0271
      6  CG       103.0900   10.4200  125.9140 C.3     8  LYS8        0.0035
      7  CD       103.0440   10.8060  124.4400 C.3     8  LYS8        0.0206
      8  CE       101.6970   10.4700  123.8130 C.3     8  LYS8        0.1093
      9  NZ       101.6450   10.8590  122.3740 N.3     8  LYS8       -0.1314
     10  N        105.8530   15.2490  122.6000 N.3    48  GLY48      -0.1210
     11  CA       105.6470   16.1830  121.5040 C.3    48  GLY48       0.1956
     12  C        105.2420   17.5720  121.9710 C.2    48  GLY48       0.2612
     13  O        105.3240   17.8760  123.1610 O.2    48  GLY48      -0.2717
     14  N        104.8160   18.4240  121.0400 N.am   49  ASP49      -0.1959
     15  CA       104.3880   19.7710  121.3970 C.3    49  ASP49       0.1840
     16  C        103.2210   19.6740  122.3780 C.2    49  ASP49       0.2622
     17  O        103.0560   20.5210  123.2610 O.2    49  ASP49      -0.2715
     18  CB       103.9370   20.5560  120.1600 C.3    49  ASP49       0.1450
     19  CG       105.0800   20.8960  119.2210 C.2    49  ASP49       0.3671
     20  OD1      106.1670   21.2770  119.7070 O.co2  49  ASP49      -0.2456
     21  OD2      104.8860   20.8050  117.9870 O.co2  49  ASP49      -0.2456
     22  N        102.4110   18.6330  122.2200 N.am   50  GLY50      -0.1954
     23  CA       101.2770   18.4580  123.1060 C.3    50  GLY50       0.1869
     24  C        101.7580   18.2680  124.5300 C.2    50  GLY50       0.2309
     25  O        101.2040   18.8430  125.4780 O.2    50  GLY50      -0.2863
     26  N        102.4770   21.4260  125.9960 N.3    53  LEU53      -0.1231
     27  CA       101.2740   22.1890  126.2890 C.3    53  LEU53       0.1693
     28  C        100.6710   21.7160  127.6010 C.2    53  LEU53       0.2591
     29  O        100.2220   22.5280  128.4120 O.2    53  LEU53      -0.2718
     30  CB       100.2500   22.0520  125.1560 C.3    53  LEU53       0.0284
     31  CG       100.5750   22.8390  123.8860 C.3    53  LEU53       0.0019
     32  CD1       99.5570   22.5460  122.8000 C.3    53  LEU53       0.0001
     33  CD2      100.5990   24.3190  124.2110 C.3    53  LEU53       0.0001
     34  N        100.6710   20.4000  127.8120 N.am   54  ARG54      -0.1980
     35  CA       100.1260   19.8140  129.0390 C.3    54  ARG54       0.1597
     36  C        100.9590   20.1860  130.2610 C.2    54  ARG54       0.2287
     37  O        100.4200   20.3890  131.3470 O.2    54  ARG54      -0.2864
     38  CB       100.0240   18.2900  128.8950 C.3    54  ARG54       0.0334
     39  CG        98.9230   17.8750  127.9320 C.3    54  ARG54       0.0492
     40  CD        99.0700   16.4590  127.4170 C.3    54  ARG54       0.2205
     41  NE        98.8200   16.4240  125.9750 N.pl3  54  ARG54      -0.0865
     42  CZ        97.6600   16.7390  125.4020 C.cat  54  ARG54       0.5346
     43  NH1       96.6290   17.1040  126.1450 N.pl3  54  ARG54       0.1354
     44  NH2       97.5360   16.7140  124.0820 N.pl3  54  ARG54       0.1354
     45  N        111.7040   16.0400  121.1800 N.3    69  ASN69      -0.1240
     46  CA       110.6700   15.6290  120.2490 C.3    69  ASN69       0.1653
     47  C        110.6510   14.1300  119.9830 C.2    69  ASN69       0.2266
     48  O        111.5360   13.5830  119.3220 O.2    69  ASN69      -0.2867
     49  CB       110.8320   16.3990  118.9380 C.3    69  ASN69       0.1155
     50  CG       109.8130   15.9930  117.8940 C.2    69  ASN69       0.2627
     51  OD1      108.7220   15.5210  118.2250 O.2    69  ASN69      -0.2716
     52  ND2      110.1590   16.1900  116.6220 N.am   69  ASN69      -0.0877
     53  N        107.3260   13.3790  114.9620 N.3    72  ARG72      -0.1231
     54  CA       107.4020   13.9180  113.5970 C.3    72  ARG72       0.1694
     55  C        107.7790   15.4010  113.6680 C.2    72  ARG72       0.2591
     56  O        108.9410   15.7610  113.4620 O.2    72  ARG72      -0.2718
     57  CB       105.8870   13.7700  113.3790 C.3    72  ARG72       0.0321
     58  CG       105.4680   12.3400  113.0370 C.3    72  ARG72       0.0489
     59  CD       103.9830   12.2340  112.7000 C.3    72  ARG72       0.2205
     60  NE       103.6480   12.9050  111.4460 N.pl3  72  ARG72      -0.0865
     61  CZ       102.4210   12.9690  110.9340 C.cat  72  ARG72       0.5346
     62  NH1      101.4000   12.4000  111.5670 N.pl3  72  ARG72       0.1354
     63  NH2      102.2170   13.6020  109.7860 N.pl3  72  ARG72       0.1354
     64  N        106.7990   16.2610  113.9340 N.am   73  VAL73      -0.1980
     65  CA       107.0560   17.6950  113.9990 C.3    73  VAL73       0.1595
     66  C        106.9510   18.2330  115.4180 C.2    73  VAL73       0.2287
     67  O        105.9880   17.9470  116.1360 O.2    73  VAL73      -0.2864
     68  CB       106.0600   18.4870  113.1150 C.3    73  VAL73       0.0276
     69  CG1      106.4860   19.9520  113.0460 C.3    73  VAL73       0.0022
     70  CG2      105.9810   17.8780  111.7190 C.3    73  VAL73       0.0022
     71  N        107.5450   21.9590  116.8320 N.3    75  LEU75      -0.1231
     72  CA       107.9140   23.3630  116.7870 C.3    75  LEU75       0.1693
     73  C        108.3920   23.8780  118.1370 C.2    75  LEU75       0.2591
     74  O        109.1990   24.8040  118.1970 O.2    75  LEU75      -0.2718
     75  CB       106.7320   24.1950  116.3010 C.3    75  LEU75       0.0284
     76  CG       106.3990   23.9910  114.8280 C.3    75  LEU75       0.0019
     77  CD1      105.0980   24.6800  114.5200 C.3    75  LEU75       0.0001
     78  CD2      107.5200   24.5410  113.9600 C.3    75  LEU75       0.0001
     79  N        107.9130   23.2660  119.2160 N.am   76  LEU76      -0.1980
     80  CA       108.2980   23.6940  120.5570 C.3    76  LEU76       0.1596
     81  C        109.4410   22.8880  121.1640 C.2    76  LEU76       0.2287
     82  O        109.8900   23.1990  122.2650 O.2    76  LEU76      -0.2864
     83  CB       107.0900   23.6330  121.4980 C.3    76  LEU76       0.0297
     84  CG       105.8370   24.4010  121.0660 C.3    76  LEU76       0.0022
     85  CD1      104.7130   24.1580  122.0660 C.3    76  LEU76       0.0001
     86  CD2      106.1520   25.8790  120.9600 C.3    76  LEU76       0.0001
     87  N         99.1080   28.6560  122.9350 N.3   115  ASN115     -0.1225
     88  CA        98.6320   28.5810  121.5510 C.3   115  ASN115      0.1785
     89  C         97.4420   29.4770  121.2670 C.2   115  ASN115      0.2597
     90  O         97.5280   30.4020  120.4570 O.2   115  ASN115     -0.2718
     91  CB        98.2420   27.1470  121.1860 C.3   115  ASN115      0.1169
     92  CG        99.4400   26.2820  120.8650 C.2   115  ASN115      0.2627
     93  OD1      100.5700   26.7770  120.7620 O.2   115  ASN115     -0.2716
     94  ND2       99.2000   24.9800  120.6870 N.am  115  ASN115     -0.0877
     95  N         96.3260   29.1940  121.9300 N.am  116  GLU116     -0.1979
     96  CA        95.1210   29.9830  121.7270 C.3   116  GLU116      0.1602
     97  C         93.9890   29.6870  122.6940 C.2   116  GLU116      0.2287
     98  O         94.0230   28.7480  123.4840 O.2   116  GLU116     -0.2864
     99  CB        94.5700   29.7680  120.3150 C.3   116  GLU116      0.0415
    100  CG        93.7630   28.4830  120.1400 C.3   116  GLU116      0.1163
    101  CD        94.5950   27.2060  120.3200 C.2   116  GLU116      0.3649
    102  OE1       94.4170   26.5010  121.3370 O.co2 116  GLU116     -0.2457
    103  OE2       95.4280   26.9070  119.4420 O.co2 116  GLU116     -0.2457
    104  N        102.7200   31.8960  118.4900 N.3   153  ILE153     -0.1231
    105  CA       103.1600   30.5180  118.7040 C.3   153  ILE153      0.1692
    106  C        102.0660   29.5540  118.2810 C.2   153  ILE153      0.2592
    107  O        102.3440   28.4380  117.8590 O.2   153  ILE153     -0.2718
    108  CB       103.5100   30.2550  120.1750 C.3   153  ILE153      0.0266
    109  CG1      104.6950   31.1350  120.5840 C.3   153  ILE153      0.0019
    110  CG2      103.8230   28.7920  120.3820 C.3   153  ILE153      0.0020
    111  CD1      105.9310   30.9730  119.7120 C.3   153  ILE153      0.0001
    112  N        100.8180   29.9980  118.3970 N.am  154  GLY154     -0.1957
    113  CA        99.6950   29.1750  118.0040 C.3   154  GLY154      0.1869
    114  C         99.3480   29.3630  116.5400 C.2   154  GLY154      0.2309
    115  O         98.4720   28.6720  116.0090 O.2   154  GLY154     -0.2863
    116  N        100.6470   28.2520  114.1660 N.3   156  THR156     -0.1203
    117  CA       100.8690   27.0060  113.4370 C.3   156  THR156      0.1994
    118  C        100.0070   25.8530  113.9330 C.2   156  THR156      0.2618
    119  O        100.1880   24.7210  113.5040 O.2   156  THR156     -0.2717
    120  CB       102.3420   26.5620  113.4920 C.3   156  THR156      0.1784
    121  OG1      102.8550   26.7720  114.8080 O.3   156  THR156     -0.2211
    122  CG2      103.1690   27.3380  112.5060 C.3   156  THR156      0.0376
    123  N         99.0670   26.1440  114.8290 N.am  157  GLY157     -0.1942
    124  CA        98.1830   25.1090  115.3400 C.3   157  GLY157      0.2014
    125  C         96.7760   25.1630  114.7490 C.2   157  GLY157      0.2638
    126  O         96.5990   25.1220  113.5310 O.2   157  GLY157     -0.2714
    127  N         95.7710   25.2540  115.6130 N.am  158  TYR158     -0.1973
    128  CA        94.3760   25.3250  115.1820 C.3   158  TYR158      0.1639
    129  C         94.2030   26.4660  114.1660 C.2   158  TYR158      0.2290
    130  O         93.5980   26.2830  113.1140 O.2   158  TYR158     -0.2864
    131  CB        93.4730   25.5740  116.4000 C.3   158  TYR158      0.0560
    132  CG        92.0890   24.9400  116.3630 C.ar  158  TYR158     -0.0198
    133  CD1       91.4980   24.5380  115.1610 C.ar  158  TYR158     -0.0009
    134  CD2       91.3520   24.7910  117.5390 C.ar  158  TYR158     -0.0009
    135  CE1       90.2060   24.0040  115.1320 C.ar  158  TYR158      0.0417
    136  CE2       90.0520   24.2580  117.5280 C.ar  158  TYR158      0.0417
    137  CZ        89.4860   23.8680  116.3230 C.ar  158  TYR158      0.1957
    138  OH        88.2090   23.3480  116.3160 O.3   158  TYR158     -0.2866
    139  N         95.0980   25.5500  110.6360 N.3   161  SER161     -0.1217
    140  CA        94.1080   24.7320  109.9460 C.3   161  SER161      0.1889
    141  C         92.9070   25.5440  109.4890 C.2   161  SER161      0.2288
    142  O         92.2540   25.1870  108.5170 O.2   161  SER161     -0.2866
    143  CB        93.6390   23.5850  110.8510 C.3   161  SER161      0.2089
    144  OG        94.7200   22.7400  111.1850 O.3   161  SER161     -0.2183
    145  N         94.3780   26.1110  124.9020 N.3   209  ASP209     -0.1225
    146  CA        95.3960   25.1820  124.4290 C.3   209  ASP209      0.1805
    147  C         94.9030   23.7540  124.2720 C.2   209  ASP209      0.2598
    148  O         95.7010   22.8220  124.2850 O.2   209  ASP209     -0.2718
    149  CB        96.6190   25.1920  125.3480 C.3   209  ASP209      0.1424
    150  CG        97.4330   26.4600  125.2170 C.2   209  ASP209      0.3668
    151  OD1       97.3410   27.1210  124.1630 O.co2 209  ASP209     -0.2456
    152  OD2       98.1740   26.7920  126.1630 O.co2 209  ASP209     -0.2456
    153  N         93.5910   23.5950  124.1170 N.am  210  GLY210     -0.1942
    154  CA        92.9900   22.2830  123.9500 C.3   210  GLY210      0.2014
    155  C         92.9740   21.4180  125.1970 C.2   210  GLY210      0.2638
    156  O         92.7630   20.2100  125.1080 O.2   210  GLY210     -0.2714
    157  N         93.1800   22.0270  126.3610 N.am  211  GLN211     -0.1977
    158  CA        93.2050   21.2730  127.6060 C.3   211  GLN211      0.1601
    159  C         92.0390   21.5930  128.5350 C.2   211  GLN211      0.2287
    160  O         91.2780   20.7050  128.9140 O.2   211  GLN211     -0.2864
    161  CB        94.5270   21.5160  128.3350 C.3   211  GLN211      0.0394
    162  CG        95.7520   21.2510  127.4790 C.3   211  GLN211      0.0908
    163  CD        95.6590   19.9310  126.7500 C.2   211  GLN211      0.2608
    164  OE1       95.4850   18.8830  127.3680 O.2   211  GLN211     -0.2717
    165  NE2       95.7700   19.9730  125.4270 N.am  211  GLN211     -0.0878
    166  N        103.9890   19.6500  108.3730 N.3   248  ILE248     -0.1231
    167  CA       102.8820   19.4940  109.3090 C.3   248  ILE248      0.1692
    168  C        101.8520   18.5010  108.7880 C.2   248  ILE248      0.2592
    169  O        101.4160   18.5680  107.6280 O.2   248  ILE248     -0.2718
    170  CB       102.1790   20.8460  109.6000 C.3   248  ILE248      0.0266
    171  CG1      102.9960   21.6400  110.6240 C.3   248  ILE248      0.0019
    172  CG2      100.7480   20.6100  110.0860 C.3   248  ILE248      0.0020
    173  CD1      102.4100   22.9900  110.9650 C.3   248  ILE248      0.0001
    174  N        101.4810   17.5810  109.6720 N.am  249  GLY249     -0.1957
    175  CA       100.5080   16.5550  109.3530 C.3   249  GLY249      0.1869
    176  C         99.7190   16.1910  110.5980 C.2   249  GLY249      0.2309
    177  O         98.5050   15.9220  110.4800 O.2   249  GLY249     -0.2863
@<TRIPOS>BOND
     1   169   168    2
     2   166   167    1
     3   142   141    2
     4   168   167    1
     5   168   174   am
     6   167   170    1
     7   175   174    1
     8   175   176    1
     9   141   140    1
    10   170   172    1
    11   170   171    1
    12    63    61    1
    13   140   139    1
    14   140   143    1
    15   177   176    2
    16   171   173    1
    17   143   144    1
    18    61    60    2
    19    61    62    1
    20    60    59    1
    21    70    68    1
    22   122   120    1
    23    59    58    1
    24    58    57    1
    25    69    68    1
    26   130   129    2
    27    68    65    1
    28    57    54    1
    29   117   120    1
    30   117   118    1
    31   117   116    1
    32    56    55    2
    33   120   121    1
    34   119   118    2
    35   126   125    2
    36    54    55    1
    37    54    53    1
    38    55    64   am
    39   118   123   am
    40    64    65    1
    41    78    76    1
    42    65    66    1
    43   129   128    1
    44    77    76    1
    45   125   124    1
    46   125   127   am
    47    76    75    1
    48   123   124    1
    49   135   133   ar
    50   135   137   ar
    51   133   132   ar
    52   128   127    1
    53   128   131    1
    54    66    67    2
    55   115   114    2
    56    75    72    1
    57   138   137    1
    58   137   136   ar
    59   132   131    1
    60   132   134   ar
    61   114   113    1
    62    52    50   am
    63    72    71    1
    64    72    73    1
    65   136   134   ar
    66   107   106    2
    67    50    51    2
    68    50    49    1
    69    21    19   ar
    70   113   112    1
    71    73    74    2
    72    73    79   am
    73   106   112   am
    74   106   105    1
    75   104   105    1
    76   105   108    1
    77    49    46    1
    78    79    80    1
    79    19    20   ar
    80    19    18    1
    81    48    47    2
    82   103   101   ar
    83   111   109    1
    84    47    46    1
    85   100    99    1
    86   100   101    1
    87    18    15    1
    88   108   110    1
    89   108   109    1
    90    46    45    1
    91    99    96    1
    92   101   102   ar
    93    90    89    2
    94    80    81    1
    95    80    83    1
    96    94    92   am
    97    93    92    2
    98    92    91    1
    99    86    84    1
   100    14    15    1
   101    14    12   am
   102    84    83    1
   103    84    85    1
   104    81    82    2
   105    91    88    1
   106    89    88    1
   107    89    95   am
   108    15    16    1
   109    11    12    1
   110    11    10    1
   111    88    87    1
   112    96    95    1
   113    96    97    1
   114    12    13    2
   115    22    16   am
   116    22    23    1
   117     9     8    1
   118    16    17    2
   119    97    98    2
   120    32    31    1
   121    23    24    1
   122     8     7    1
   123    31    33    1
   124    31    30    1
   125   154   153    1
   126   154   155    1
   127    44    42    1
   128   153   147   am
   129   151   150   ar
   130   147   148    2
   131   147   146    1
   132   146   145    1
   133   146   149    1
   134     7     6    1
   135    24    25    2
   136   156   155    2
   137    30    27    1
   138   155   157   am
   139   150   149    1
   140   150   152   ar
   141    42    41    2
   142    42    43    1
   143   165   163   am
   144     6     5    1
   145    41    40    1
   146    26    27    1
   147    27    28    1
   148   157   158    1
   149     5     2    1
   150   163   164    2
   151   163   162    1
   152    40    39    1
   153   162   161    1
   154    28    34   am
   155    28    29    2
   156   158   161    1
   157   158   159    1
   158    34    35    1
   159    39    38    1
   160     2     3    1
   161     2     1    1
   162     3     4    2
   163   159   160    2
   164    38    35    1
   165    35    36    1
   166    36    37    2
