@<TRIPOS>MOLECULE
tmp/1sv2B00.pdb
 99 96 0 0 0
SMALL
GASTEIGER

@<TRIPOS>ATOM
      1  N        106.9360   20.9570   18.2890 N.3    47  VAL47      -0.1231
      2  CA       107.7430   21.3250   19.4550 C.3    47  VAL47       0.1692
      3  C        107.3180   22.6700   20.0460 C.2    47  VAL47       0.2592
      4  O        107.5120   22.9400   21.2270 O.2    47  VAL47      -0.2718
      5  CB       109.2310   21.4310   19.0760 C.3    47  VAL47       0.0266
      6  CG1      110.0580   21.7850   20.3040 C.3    47  VAL47       0.0020
      7  CG2      109.7020   20.1250   18.4480 C.3    47  VAL47       0.0020
      8  N        106.7510   23.5170   19.2020 N.am   48  GLY48      -0.1957
      9  CA       106.3070   24.8180   19.6510 C.3    48  GLY48       0.1869
     10  C        105.2760   25.3870   18.6960 C.2    48  GLY48       0.2309
     11  O        105.0920   24.8730   17.5930 O.2    48  GLY48      -0.2863
     12  N        111.1830   15.4030   15.0940 N.3    71  TYR71      -0.1241
     13  CA       112.5890   15.7490   15.2710 C.3    71  TYR71       0.1605
     14  C        113.1900   14.8000   16.2920 C.2    71  TYR71       0.2264
     15  O        113.5490   15.2080   17.3950 O.2    71  TYR71      -0.2867
     16  CB       112.7050   17.1830   15.7640 C.3    71  TYR71       0.0534
     17  CG       111.9450   18.1400   14.8920 C.ar   71  TYR71      -0.0201
     18  CD1      112.5150   18.6670   13.7340 C.ar   71  TYR71      -0.0009
     19  CD2      110.6360   18.4870   15.2000 C.ar   71  TYR71      -0.0009
     20  CE1      111.7930   19.5240   12.9030 C.ar   71  TYR71       0.0417
     21  CE2      109.9040   19.3370   14.3790 C.ar   71  TYR71       0.0417
     22  CZ       110.4870   19.8560   13.2350 C.ar   71  TYR71       0.1957
     23  OH       109.7660   20.7310   12.4570 O.3    71  TYR71      -0.2866
     24  N        121.1950   23.4640   12.3680 N.3    97  PHE97      -0.1241
     25  CA       120.0880   22.5450   12.5850 C.3    97  PHE97       0.1605
     26  C        119.0850   22.5550   11.4270 C.2    97  PHE97       0.2264
     27  O        118.7860   23.6070   10.8610 O.2    97  PHE97      -0.2867
     28  CB       119.3750   22.9000   13.8850 C.3    97  PHE97       0.0534
     29  CG       118.3960   21.8670   14.3260 C.ar   97  PHE97      -0.0203
     30  CD1      118.7870   20.8420   15.1760 C.ar   97  PHE97      -0.0042
     31  CD2      117.0820   21.8910   13.8600 C.ar   97  PHE97      -0.0042
     32  CE1      117.8780   19.8470   15.5590 C.ar   97  PHE97      -0.0003
     33  CE2      116.1600   20.8970   14.2360 C.ar   97  PHE97      -0.0003
     34  CZ       116.5590   19.8750   15.0860 C.ar   97  PHE97      -0.0000
     35  N        115.8930   22.8750   10.6190 N.3    99  GLU99      -0.1231
     36  CA       114.5890   23.2890   11.1100 C.3    99  GLU99       0.1699
     37  C        113.3890   22.9230   10.2430 C.2    99  GLU99       0.2593
     38  O        113.5020   22.6870    9.0470 O.2    99  GLU99      -0.2718
     39  CB       114.5880   24.7990   11.3690 C.3    99  GLU99       0.0402
     40  CG       115.1510   25.1980   12.7250 C.3    99  GLU99       0.1161
     41  CD       115.1720   26.7050   12.9510 C.2    99  GLU99       0.3649
     42  OE1      114.1180   27.3660   12.7910 O.co2  99  GLU99      -0.2457
     43  OE2      116.2530   27.2250   13.3000 O.co2  99  GLU99      -0.2457
     44  N        112.2350   22.8640   10.8860 N.am  100  GLY100     -0.1942
     45  CA       110.9950   22.5760   10.2070 C.3   100  GLY100      0.2014
     46  C        109.9340   23.4530   10.8580 C.2   100  GLY100      0.2639
     47  O        110.1480   23.9790   11.9510 O.2   100  GLY100     -0.2714
     48  N        108.7980   23.6330   10.1930 N.am  101  CYS101     -0.1967
     49  CA       107.7100   24.4410   10.7340 C.3   101  CYS101      0.1712
     50  C        106.3850   23.8020   10.3570 C.2   101  CYS101      0.2296
     51  O        106.2580   23.2130    9.2830 O.2   101  CYS101     -0.2864
     52  CB       107.7630   25.8600   10.1670 C.3   101  CYS101      0.0983
     53  SG       106.3640   26.9240   10.6350 S.3   101  CYS101     -0.0798
     54  N        119.3060   23.3980   22.4110 N.3   136  TYR136     -0.1241
     55  CA       118.0930   23.2370   21.6210 C.3   136  TYR136      0.1605
     56  C        117.0110   24.2160   22.0430 C.2   136  TYR136      0.2264
     57  O        116.3100   24.7660   21.1960 O.2   136  TYR136     -0.2867
     58  CB       117.5810   21.7940   21.7260 C.3   136  TYR136      0.0534
     59  CG       116.4470   21.4630   20.7750 C.ar  136  TYR136     -0.0201
     60  CD1      116.5640   21.7070   19.3990 C.ar  136  TYR136     -0.0009
     61  CD2      115.2450   20.9240   21.2500 C.ar  136  TYR136     -0.0009
     62  CE1      115.5090   21.4290   18.5240 C.ar  136  TYR136      0.0417
     63  CE2      114.1860   20.6410   20.3830 C.ar  136  TYR136      0.0417
     64  CZ       114.3250   20.9010   19.0260 C.ar  136  TYR136      0.1957
     65  OH       113.2750   20.6520   18.1780 O.3   136  TYR136     -0.2866
     66  N        117.4050   27.3710   20.3010 N.3   139  ILE139     -0.1231
     67  CA       117.0170   27.1730   18.9110 C.3   139  ILE139      0.1692
     68  C        115.5000   27.2630   18.7480 C.2   139  ILE139      0.2591
     69  O        114.9970   27.9270   17.8400 O.2   139  ILE139     -0.2718
     70  CB       117.4700   25.7880   18.4080 C.3   139  ILE139      0.0266
     71  CG1      118.9900   25.6640   18.5140 C.3   139  ILE139      0.0019
     72  CG2      117.0110   25.5750   16.9820 C.3   139  ILE139      0.0020
     73  CD1      119.7740   26.7270   17.7350 C.3   139  ILE139      0.0001
     74  N        114.7780   26.5930   19.6390 N.am  140  VAL140     -0.1980
     75  CA       113.3230   26.5740   19.5890 C.3   140  VAL140      0.1595
     76  C        112.6920   27.9260   19.8900 C.2   140  VAL140      0.2287
     77  O        111.7840   28.3610   19.1770 O.2   140  VAL140     -0.2864
     78  CB       112.7480   25.5420   20.5800 C.3   140  VAL140      0.0276
     79  CG1      111.2370   25.5120   20.4760 C.3   140  VAL140      0.0022
     80  CG2      113.3240   24.1690   20.2940 C.3   140  VAL140      0.0022
     81  N        113.2410   30.3470   16.9150 N.3   143  HIS143     -0.1226
     82  CA       112.3830   29.9950   15.7970 C.3   143  HIS143      0.1752
     83  C        110.9770   30.4700   16.1040 C.2   143  HIS143      0.2595
     84  O        110.4510   31.3290   15.4140 O.2   143  HIS143     -0.2718
     85  CB       112.3800   28.4780   15.5660 C.3   143  HIS143      0.0759
     86  CG       111.4120   28.0040   14.5110 C.ar  143  HIS143      0.0818
     87  ND1      111.7510   27.1500   13.4830 N.ar  143  HIS143     -0.2268
     88  CD2      110.0750   28.2060   14.3860 C.ar  143  HIS143      0.1154
     89  CE1      110.6400   26.8600   12.7880 C.ar  143  HIS143      0.1986
     90  NE2      109.5810   27.4740   13.2890 N.ar  143  HIS143     -0.2212
     91  N        110.3720   29.9370   17.1550 N.am  144  GLU144     -0.1979
     92  CA       109.0030   30.3160   17.4730 C.3   144  GLU144      0.1602
     93  C        108.7640   31.7950   17.7500 C.2   144  GLU144      0.2287
     94  O        107.6580   32.2830   17.5420 O.2   144  GLU144     -0.2864
     95  CB       108.4670   29.4610   18.6220 C.3   144  GLU144      0.0415
     96  CG       108.3680   27.9550   18.3040 C.3   144  GLU144      0.1163
     97  CD       107.6290   27.6310   16.9920 C.2   144  GLU144      0.3649
     98  OE1      106.7540   28.4230   16.5640 O.co2 144  GLU144     -0.2457
     99  OE2      107.9210   26.5630   16.3990 O.co2 144  GLU144     -0.2457
@<TRIPOS>BOND
     1    38    37    2
     2    51    50    2
     3    52    53    1
     4    52    49    1
     5    48    49    1
     6    48    46   am
     7    45    46    1
     8    45    44    1
     9    37    44   am
    10    37    36    1
    11    50    49    1
    12    35    36    1
    13    46    47    2
    14    27    26    2
    15    36    39    1
    16    39    40    1
    17    26    25    1
    18    24    25    1
    19    23    22    1
    20    25    28    1
    21    40    41    1
    22    89    90   ar
    23    89    87   ar
    24    42    41   ar
    25    20    22   ar
    26    20    18   ar
    27    41    43   ar
    28    22    21   ar
    29    90    88   ar
    30    87    86   ar
    31    18    17   ar
    32    31    33   ar
    33    31    29   ar
    34    28    29    1
    35    33    34   ar
    36    29    30   ar
    37    21    19   ar
    38    88    86   ar
    39    86    85    1
    40    17    19   ar
    41    17    16    1
    42    34    32   ar
    43    12    13    1
    44    30    32   ar
    45    13    16    1
    46    13    14    1
    47    84    83    2
    48    85    82    1
    49    82    83    1
    50    82    81    1
    51    83    91   am
    52    14    15    2
    53    99    97   ar
    54    98    97   ar
    55    72    70    1
    56    97    96    1
    57    91    92    1
    58    92    93    1
    59    92    95    1
    60    94    93    2
    61    11    10    2
    62    73    71    1
    63    69    68    2
    64    65    64    1
    65     1     2    1
    66    96    95    1
    67    70    71    1
    68    70    67    1
    69     7     5    1
    70    62    64   ar
    71    62    60   ar
    72    10     9    1
    73    68    67    1
    74    68    74   am
    75    67    66    1
    76    64    63   ar
    77     5     2    1
    78     5     6    1
    79    77    76    2
    80     8     9    1
    81     8     3   am
    82    60    59   ar
    83     2     3    1
    84    75    74    1
    85    75    76    1
    86    75    78    1
    87     3     4    2
    88    80    78    1
    89    63    61   ar
    90    79    78    1
    91    59    61   ar
    92    59    58    1
    93    57    56    2
    94    55    58    1
    95    55    56    1
    96    55    54    1
