@<TRIPOS>MOLECULE
tmp/1sv5A00.pdb
 184 183 0 0 0
SMALL
GASTEIGER

@<TRIPOS>ATOM
      1  N        138.3260  -16.0760   74.2300 N.3    95  PRO95      -0.2116
      2  CA       137.3740  -16.7020   73.3200 C.3    95  PRO95       0.1372
      3  C        136.4960  -17.6560   74.1200 C.2    95  PRO95       0.2244
      4  O        136.8900  -18.1180   75.1940 O.2    95  PRO95      -0.2868
      5  CB       138.2830  -17.4470   72.3600 C.3    95  PRO95       0.0268
      6  CG       139.3270  -17.9610   73.2830 C.3    95  PRO95       0.0207
      7  CD       139.6350  -16.7430   74.1550 C.3    95  PRO95       0.0892
      8  N        135.3270  -22.1390   69.3990 N.3   100  LEU100     -0.1231
      9  CA       136.5840  -22.6980   68.8890 C.3   100  LEU100      0.1693
     10  C        136.2100  -23.7300   67.8270 C.2   100  LEU100      0.2592
     11  O        135.4090  -24.6320   68.0840 O.2   100  LEU100     -0.2718
     12  CB       137.3340  -23.3910   70.0150 C.3   100  LEU100      0.0284
     13  CG       137.6090  -22.5450   71.2520 C.3   100  LEU100      0.0019
     14  CD1      137.7440  -23.4270   72.4820 C.3   100  LEU100      0.0001
     15  CD2      138.8790  -21.7390   71.0330 C.3   100  LEU100      0.0001
     16  N        136.7740  -23.6290   66.6360 N.am  101  LYS101     -0.1966
     17  CA       136.3770  -24.5790   65.6060 C.3   101  LYS101      0.1728
     18  C        136.6290  -26.0590   65.9260 C.2   101  LYS101      0.2616
     19  O        135.8500  -26.6390   66.6770 O.2   101  LYS101     -0.2715
     20  CB       136.9800  -24.1670   64.2670 C.3   101  LYS101      0.0311
     21  CG       136.1610  -23.0670   63.5980 C.3   101  LYS101      0.0038
     22  CD       137.0150  -22.1340   62.7590 C.3   101  LYS101      0.0206
     23  CE       136.3010  -20.8140   62.5010 C.3   101  LYS101      0.1093
     24  NZ       137.1140  -19.9660   61.5950 N.3   101  LYS101     -0.1314
     25  N        137.6930  -26.6810   65.4220 N.am  102  LYS102     -0.1963
     26  CA       137.8440  -28.1100   65.6950 C.3   102  LYS102      0.1728
     27  C        139.2170  -28.6530   66.1080 C.2   102  LYS102      0.2616
     28  O        139.5240  -28.7690   67.2950 O.2   102  LYS102     -0.2715
     29  CB       137.3430  -28.8580   64.4790 C.3   102  LYS102      0.0311
     30  CG       136.9140  -30.3020   64.7690 C.3   102  LYS102      0.0038
     31  CD       135.9300  -30.3930   65.9540 C.3   102  LYS102      0.0206
     32  CE       135.9050  -31.8040   66.5710 C.3   102  LYS102      0.1093
     33  NZ       137.2250  -32.2250   67.1650 N.3   102  LYS102     -0.1314
     34  N        139.9800  -29.0250   65.0720 N.am  103  ASN103     -0.1958
     35  CA       141.3570  -29.5600   65.0670 C.3   103  ASN103      0.1819
     36  C        141.6830  -30.8660   65.7860 C.2   103  ASN103      0.2621
     37  O        141.8950  -30.9210   67.0080 O.2   103  ASN103     -0.2715
     38  CB       142.3230  -28.4450   65.4520 C.3   103  ASN103      0.1195
     39  CG       142.5220  -27.4760   64.3100 C.2   103  ASN103      0.2630
     40  OD1      143.6260  -27.3380   63.7700 O.2   103  ASN103     -0.2716
     41  ND2      141.4360  -26.8340   63.8930 N.am  103  ASN103     -0.0877
     42  N        141.6790  -31.9230   64.9710 N.am  104  LYS104     -0.1963
     43  CA       141.9540  -33.2940   65.3880 C.3   104  LYS104      0.1728
     44  C        143.0320  -33.4130   66.4960 C.2   104  LYS104      0.2617
     45  O        142.8840  -34.2490   67.3820 O.2   104  LYS104     -0.2715
     46  CB       142.3350  -34.1320   64.1520 C.3   104  LYS104      0.0311
     47  CG       141.1300  -34.3570   63.2300 C.3   104  LYS104      0.0038
     48  CD       141.2840  -35.5200   62.2420 C.3   104  LYS104      0.0206
     49  CE       141.7030  -35.0560   60.8430 C.3   104  LYS104      0.1093
     50  NZ       141.5890  -36.1490   59.8220 N.3   104  LYS104     -0.1314
     51  N        144.0880  -32.5910   66.4930 N.am  105  SER105     -0.1936
     52  CA       145.1030  -32.7100   67.5650 C.3   105  SER105      0.2055
     53  C        145.8120  -31.3920   68.0040 C.2   105  SER105      0.2642
     54  O        146.4500  -30.7610   67.1640 O.2   105  SER105     -0.2714
     55  CB       146.1440  -33.7390   67.1140 C.3   105  SER105      0.2130
     56  OG       145.5030  -34.8220   66.4780 O.3   105  SER105     -0.2179
     57  N        145.7320  -30.9990   69.2920 N.am  106  VAL106     -0.1977
     58  CA       146.3630  -29.7450   69.8100 C.3   106  VAL106      0.1596
     59  C        147.5530  -29.8470   70.7980 C.2   106  VAL106      0.2287
     60  O        147.5640  -30.7050   71.6900 O.2   106  VAL106     -0.2864
     61  CB       145.3580  -28.8650   70.5320 C.3   106  VAL106      0.0276
     62  CG1      146.0980  -27.7390   71.2000 C.3   106  VAL106      0.0022
     63  CG2      144.3340  -28.3220   69.5560 C.3   106  VAL106      0.0022
     64  N        146.6850  -23.2350   63.3740 N.3   179  VAL179     -0.1231
     65  CA       146.2190  -22.0040   63.9890 C.3   179  VAL179      0.1692
     66  C        146.8000  -21.9880   65.3850 C.2   179  VAL179      0.2592
     67  O        146.8090  -23.0060   66.0710 O.2   179  VAL179     -0.2718
     68  CB       144.6810  -21.9140   64.0640 C.3   179  VAL179      0.0266
     69  CG1      144.0850  -22.1130   62.6730 C.3   179  VAL179      0.0020
     70  CG2      144.1440  -22.9060   65.0480 C.3   179  VAL179      0.0020
     71  N        147.3270  -20.8460   65.7940 N.am  180  ILE180     -0.1966
     72  CA       147.8790  -20.7520   67.1170 C.3   180  ILE180      0.1727
     73  C        147.2300  -19.6140   67.8780 C.2   180  ILE180      0.2616
     74  O        146.9860  -18.5480   67.3130 O.2   180  ILE180     -0.2715
     75  CB       149.4140  -20.5710   67.0730 C.3   180  ILE180      0.0290
     76  CG1      149.9150  -20.1950   68.4800 C.3   180  ILE180      0.0022
     77  CG2      149.8000  -19.5320   66.0540 C.3   180  ILE180      0.0023
     78  CD1      151.4420  -20.0320   68.5960 C.3   180  ILE180      0.0001
     79  N        146.9340  -19.8950   69.1490 N.am  181  TYR181     -0.1974
     80  CA       146.3100  -18.9770   70.0780 C.3   181  TYR181      0.1639
     81  C        147.2620  -18.6960   71.2040 C.2   181  TYR181      0.2290
     82  O        147.8000  -19.6080   71.8580 O.2   181  TYR181     -0.2864
     83  CB       145.0760  -19.5550   70.7180 C.3   181  TYR181      0.0560
     84  CG       144.4860  -18.6190   71.7130 C.ar  181  TYR181     -0.0198
     85  CD1      144.1260  -17.3310   71.3370 C.ar  181  TYR181     -0.0009
     86  CD2      144.3360  -18.9830   73.0360 C.ar  181  TYR181     -0.0009
     87  CE1      143.6340  -16.4170   72.2600 C.ar  181  TYR181      0.0417
     88  CE2      143.8400  -18.0760   73.9770 C.ar  181  TYR181      0.0417
     89  CZ       143.4900  -16.7940   73.5820 C.ar  181  TYR181      0.1957
     90  OH       142.9670  -15.8890   74.4780 O.3   181  TYR181     -0.2866
     91  N        148.5000  -22.1170   72.4560 N.3   188  TYR188     -0.1241
     92  CA       147.8520  -23.3390   72.0130 C.3   188  TYR188      0.1605
     93  C        148.0620  -23.4780   70.5060 C.2   188  TYR188      0.2264
     94  O        147.7590  -22.5580   69.7590 O.2   188  TYR188     -0.2867
     95  CB       146.3570  -23.2910   72.3170 C.3   188  TYR188      0.0534
     96  CG       146.0490  -23.3610   73.7860 C.ar  188  TYR188     -0.0201
     97  CD1      145.6290  -24.5530   74.3790 C.ar  188  TYR188     -0.0009
     98  CD2      146.2700  -22.2610   74.6030 C.ar  188  TYR188     -0.0009
     99  CE1      145.4510  -24.6420   75.7510 C.ar  188  TYR188      0.0417
    100  CE2      146.0990  -22.3350   75.9710 C.ar  188  TYR188      0.0417
    101  CZ       145.6990  -23.5220   76.5420 C.ar  188  TYR188      0.1957
    102  OH       145.6070  -23.5820   77.9140 O.3   188  TYR188     -0.2866
    103  N        147.2750  -25.9820   67.1150 N.3   190  GLY190     -0.1225
    104  CA       146.4580  -27.0970   66.6770 C.3   190  GLY190      0.1811
    105  C        146.5620  -27.3820   65.1980 C.2   190  GLY190      0.2280
    106  O        146.6240  -26.4640   64.3730 O.2   190  GLY190     -0.2866
    107  N        151.8830  -30.5290   77.3330 N.3   223  LYS223     -0.1245
    108  CA       150.4320  -30.5230   77.2400 C.3   223  LYS223      0.1561
    109  C        149.8460  -31.7140   77.9880 C.2   223  LYS223      0.2260
    110  O        150.3540  -32.8280   77.8920 O.2   223  LYS223     -0.2867
    111  CB       150.0000  -30.5580   75.7650 C.3   223  LYS223      0.0271
    112  CG       148.8590  -31.5260   75.4440 C.3   223  LYS223      0.0035
    113  CD       149.1230  -32.0090   74.0120 C.3   223  LYS223      0.0206
    114  CE       148.0950  -33.0240   73.5380 C.3   223  LYS223      0.1093
    115  NZ       148.1840  -33.2420   72.0530 N.3   223  LYS223     -0.1314
    116  N        145.9440  -32.8830   78.3910 N.3   225  PRO225     -0.2116
    117  CA       144.4780  -32.8400   78.3040 C.3   225  PRO225      0.1372
    118  C        143.8290  -33.5270   79.5120 C.2   225  PRO225      0.2244
    119  O        144.3900  -34.4740   80.0760 O.2   225  PRO225     -0.2868
    120  CB       144.1850  -33.5770   76.9990 C.3   225  PRO225      0.0268
    121  CG       145.4030  -33.3020   76.1780 C.3   225  PRO225      0.0207
    122  CD       146.5240  -33.4580   77.1620 C.3   225  PRO225      0.0892
    123  N        142.6140  -29.5170   78.9690 N.3   227  PHE227     -0.1241
    124  CA       143.3300  -28.2940   79.2970 C.3   227  PHE227      0.1605
    125  C        142.6160  -27.4400   80.3160 C.2   227  PHE227      0.2264
    126  O        141.4550  -27.0410   80.1540 O.2   227  PHE227     -0.2867
    127  CB       143.6310  -27.4990   78.0400 C.3   227  PHE227      0.0534
    128  CG       144.6050  -28.1860   77.1360 C.ar  227  PHE227     -0.0203
    129  CD1      145.8750  -28.5020   77.5920 C.ar  227  PHE227     -0.0042
    130  CD2      144.2460  -28.5460   75.8370 C.ar  227  PHE227     -0.0042
    131  CE1      146.7740  -29.1690   76.7770 C.ar  227  PHE227     -0.0003
    132  CE2      145.1440  -29.2180   75.0040 C.ar  227  PHE227     -0.0003
    133  CZ       146.4150  -29.5290   75.4790 C.ar  227  PHE227     -0.0000
    134  N        142.2030  -24.3360   81.3370 N.3   229  TRP229     -0.1241
    135  CA       142.2740  -22.9260   80.8680 C.3   229  TRP229      0.1605
    136  C        141.0820  -22.0570   81.2750 C.2   229  TRP229      0.2264
    137  O        139.9220  -22.4610   81.1450 O.2   229  TRP229     -0.2867
    138  CB       142.3630  -22.8600   79.3340 C.3   229  TRP229      0.0550
    139  CG       142.4000  -21.4490   78.7760 C.ar  229  TRP229      0.0003
    140  CD1      143.4700  -20.6100   78.7750 C.ar  229  TRP229      0.0946
    141  CD2      141.3180  -20.7130   78.1730 C.ar  229  TRP229      0.0152
    142  NE1      143.1360  -19.4110   78.2170 N.ar  229  TRP229     -0.2442
    143  CE2      141.8190  -19.4440   77.8390 C.ar  229  TRP229      0.0810
    144  CE3      139.9770  -21.0020   77.8830 C.ar  229  TRP229      0.0012
    145  CZ2      141.0250  -18.4600   77.2290 C.ar  229  TRP229      0.0191
    146  CZ3      139.1940  -20.0240   77.2770 C.ar  229  TRP229      0.0001
    147  CH2      139.7190  -18.7740   76.9580 C.ar  229  TRP229      0.0015
    148  N        139.4190  -28.3280   78.6000 N.3   234  LEU234     -0.1231
    149  CA       139.3870  -28.5310   77.1630 C.3   234  LEU234      0.1693
    150  C        139.7030  -29.9680   76.7600 C.2   234  LEU234      0.2592
    151  O        140.7570  -30.5100   77.1020 O.2   234  LEU234     -0.2718
    152  CB       140.3580  -27.5580   76.4600 C.3   234  LEU234      0.0284
    153  CG       140.1090  -26.0420   76.6260 C.3   234  LEU234      0.0019
    154  CD1      141.1590  -25.2480   75.8670 C.3   234  LEU234      0.0001
    155  CD2      138.7220  -25.6750   76.1350 C.3   234  LEU234      0.0001
    156  N        138.7680  -30.5850   76.0430 N.am  235  HIS235     -0.1962
    157  CA       138.9020  -31.9540   75.5520 C.3   235  HIS235      0.1772
    158  C        138.8540  -31.9490   74.0140 C.2   235  HIS235      0.2462
    159  O        138.7650  -30.8940   73.3760 O.2   235  HIS235     -0.2730
    160  CB       137.7290  -32.8080   76.0650 C.3   235  HIS235      0.0785
    161  CG       137.7430  -33.0740   77.5450 C.ar  235  HIS235      0.0821
    162  ND1      138.6260  -33.9530   78.1380 N.ar  235  HIS235     -0.2267
    163  CD2      136.9490  -32.6140   78.5440 C.ar  235  HIS235      0.1154
    164  CE1      138.3730  -34.0240   79.4350 C.ar  235  HIS235      0.1986
    165  NE2      137.3600  -33.2200   79.7070 N.ar  235  HIS235     -0.2212
    166  N        138.9230  -33.1410   73.4010 N.am  236  PRO236     -0.2727
    167  CA       138.8800  -33.3560   71.9420 C.3   236  PRO236      0.1402
    168  C        137.5020  -33.4590   71.2200 C.2   236  PRO236      0.2269
    169  O        137.4150  -33.9490   70.0920 O.2   236  PRO236     -0.2865
    170  CB       139.6500  -34.6470   71.7730 C.3   236  PRO236      0.0296
    171  CG       140.5980  -34.6320   72.9480 C.3   236  PRO236      0.0237
    172  CD       139.6390  -34.2630   74.0280 C.3   236  PRO236      0.0939
    173  N        132.3280  -28.4780   70.3860 N.3   318  TYR318     -0.1241
    174  CA       132.9790  -27.3750   69.6900 C.3   318  TYR318      0.1605
    175  C        132.1790  -26.8810   68.5080 C.2   318  TYR318      0.2264
    176  O        130.9590  -27.1000   68.4600 O.2   318  TYR318     -0.2867
    177  CB       134.3840  -27.7680   69.2650 C.3   318  TYR318      0.0534
    178  CG       135.2860  -27.9040   70.4690 C.ar  318  TYR318     -0.0201
    179  CD1      136.4480  -28.6560   70.4200 C.ar  318  TYR318     -0.0009
    180  CD2      134.9530  -27.2870   71.6690 C.ar  318  TYR318     -0.0009
    181  CE1      137.2440  -28.7920   71.5270 C.ar  318  TYR318      0.0417
    182  CE2      135.7460  -27.4160   72.7780 C.ar  318  TYR318      0.0417
    183  CZ       136.8940  -28.1680   72.7070 C.ar  318  TYR318      0.1957
    184  OH       137.7060  -28.2640   73.8180 O.3   318  TYR318     -0.2866
@<TRIPOS>BOND
     1    50    49    1
     2    49    48    1
     3    24    23    1
     4    48    47    1
     5    23    22    1
     6    69    68    1
     7    22    21    1
     8    47    46    1
     9    64    65    1
    10    21    20    1
    11    40    39    2
    12    41    39   am
    13    65    68    1
    14    65    66    1
    15    68    70    1
    16    46    43    1
    17    20    17    1
    18    39    38    1
    19   106   105    2
    20    29    30    1
    21    29    26    1
    22    30    31    1
    23    42    43    1
    24    42    36   am
    25    35    34    1
    26    35    38    1
    27    35    36    1
    28    34    27   am
    29   105   104    1
    30    66    71   am
    31    66    67    2
    32    43    44    1
    33    25    26    1
    34    25    18   am
    35    17    18    1
    36    17    16    1
    37    26    27    1
    38    36    37    2
    39    71    72    1
    40    18    19    2
    41    31    32    1
    42    77    75    1
    43    27    28    2
    44    56    55    1
    45    51    44   am
    46    51    52    1
    47    44    45    2
    48    32    33    1
    49    16    10   am
    50   104   103    1
    51    75    72    1
    52    75    76    1
    53    55    52    1
    54    72    73    1
    55    54    53    2
    56    74    73    2
    57    52    53    1
    58    10    11    2
    59    10     9    1
    60    73    79   am
    61    53    57   am
    62   176   175    2
    63    76    78    1
    64   175   174    1
    65     9     8    1
    66     9    12    1
    67    79    80    1
    68   177   174    1
    69   177   178    1
    70    57    58    1
    71    63    61    1
    72   174   173    1
    73    94    93    2
    74    58    61    1
    75    58    59    1
    76    12    13    1
    77    80    83    1
    78    80    81    1
    79   169   168    2
    80   179   178   ar
    81   179   181   ar
    82   178   180   ar
    83    93    92    1
    84    61    62    1
    85    83    84    1
    86    59    60    2
    87    15    13    1
    88    81    82    2
    89   168   167    1
    90    13    14    1
    91    85    84   ar
    92    85    87   ar
    93   181   183   ar
    94   180   182   ar
    95    84    86   ar
    96   170   167    1
    97   170   171    1
    98   167   166    1
    99    92    95    1
   100    92    91    1
   101   115   114    1
   102    87    89   ar
   103    95    96    1
   104     5     6    1
   105     5     2    1
   106   183   182   ar
   107   183   184    1
   108   171   172    1
   109    86    88   ar
   110     6     7    1
   111     2     3    1
   112     2     1    1
   113   159   158    2
   114   166   158   am
   115   166   172    1
   116   114   113    1
   117    89    88   ar
   118    89    90    1
   119    96    97   ar
   120    96    98   ar
   121   113   112    1
   122   158   157    1
   123     3     4    2
   124     7     1    1
   125    97    99   ar
   126    98   100   ar
   127   132   133   ar
   128   132   130   ar
   129   112   111    1
   130   133   131   ar
   131   157   156    1
   132   157   160    1
   133    99   101   ar
   134   111   108    1
   135   130   128   ar
   136   154   153    1
   137   100   101   ar
   138   156   150   am
   139   160   161    1
   140   155   153    1
   141   121   120    1
   142   121   122    1
   143   152   153    1
   144   152   149    1
   145   101   102    1
   146   150   151    2
   147   150   149    1
   148   131   129   ar
   149   147   145   ar
   150   147   146   ar
   151   120   117    1
   152   128   129   ar
   153   128   127    1
   154   122   116    1
   155   149   148    1
   156   145   143   ar
   157   108   107    1
   158   108   109    1
   159   146   144   ar
   160   161   162   ar
   161   161   163   ar
   162   143   141   ar
   163   143   142   ar
   164   144   141   ar
   165   110   109    2
   166   127   124    1
   167   162   164   ar
   168   141   139   ar
   169   142   140   ar
   170   117   116    1
   171   117   118    1
   172   163   165   ar
   173   140   139   ar
   174   139   138    1
   175   123   124    1
   176   124   125    1
   177   138   135    1
   178   164   165   ar
   179   118   119    2
   180   126   125    2
   181   135   136    1
   182   135   134    1
   183   137   136    2
