@<TRIPOS>MOLECULE
tmp/1sv9A00.pdb
 136 132 0 0 0
SMALL
GASTEIGER

@<TRIPOS>ATOM
      1  N         43.0610   37.4920    5.4920 N.3     2  LEU2       -0.1245
      2  CA        43.5220   36.1220    5.3580 C.3     2  LEU2        0.1561
      3  C         42.4760   35.2920    4.6260 C.2     2  LEU2        0.2260
      4  O         42.8050   34.4610    3.7830 O.2     2  LEU2       -0.2867
      5  CB        43.7980   35.5440    6.7470 C.3     2  LEU2        0.0270
      6  CG        45.1250   34.8010    6.9530 C.3     2  LEU2        0.0019
      7  CD1       46.2500   35.4830    6.1890 C.3     2  LEU2        0.0001
      8  CD2       45.4470   34.7620    8.4350 C.3     2  LEU2        0.0001
      9  N         42.7340   35.8820    0.8010 N.3     5  PHE5       -0.1227
     10  CA        44.0120   35.4100    0.3010 C.3     5  PHE5        0.1736
     11  C         44.0270   33.9010    0.0410 C.2     5  PHE5        0.2596
     12  O         44.5180   33.4490   -0.9940 O.2     5  PHE5       -0.2718
     13  CB        45.1020   35.8080    1.3050 C.3     5  PHE5        0.0547
     14  CG        46.5090   35.5700    0.8270 C.ar    5  PHE5       -0.0202
     15  CD1       46.8720   35.8230   -0.4850 C.ar    5  PHE5       -0.0042
     16  CD2       47.4900   35.1530    1.7190 C.ar    5  PHE5       -0.0042
     17  CE1       48.1920   35.6720   -0.9060 C.ar    5  PHE5       -0.0003
     18  CE2       48.8110   34.9990    1.3100 C.ar    5  PHE5       -0.0003
     19  CZ        49.1630   35.2580   -0.0040 C.ar    5  PHE5       -0.0000
     20  N         43.4780   33.1260    0.9710 N.am    6  GLY6       -0.1957
     21  CA        43.4650   31.6830    0.8140 C.3     6  GLY6        0.1869
     22  C         42.6070   31.2430   -0.3480 C.2     6  GLY6        0.2309
     23  O         42.9570   30.3220   -1.0870 O.2     6  GLY6       -0.2863
     24  N         44.4280   31.9150   -3.3150 N.3     9  ILE9       -0.1245
     25  CA        45.4390   30.8640   -3.4390 C.3     9  ILE9        0.1561
     26  C         44.8350   29.6330   -4.1140 C.2     9  ILE9        0.2260
     27  O         45.3020   29.1880   -5.1680 O.2     9  ILE9       -0.2867
     28  CB        45.9790   30.4110   -2.0550 C.3     9  ILE9        0.0252
     29  CG1       46.5660   31.5930   -1.2710 C.3     9  ILE9        0.0019
     30  CG2       47.0320   29.3530   -2.2430 C.3     9  ILE9        0.0019
     31  CD1       47.7380   32.2790   -1.9330 C.3     9  ILE9        0.0001
     32  N         45.4920   26.9220    1.0570 N.3    17  ALA17      -0.1231
     33  CA        46.4150   27.7670    1.8160 C.3    17  ALA17       0.1694
     34  C         46.9240   26.9700    3.0110 C.2    17  ALA17       0.2591
     35  O         48.1310   26.7890    3.1780 O.2    17  ALA17      -0.2718
     36  CB        45.7130   29.0260    2.2770 C.3    17  ALA17       0.0304
     37  N         46.0060   26.5070    3.8520 N.am   18  ILE18      -0.1980
     38  CA        46.3810   25.6660    4.9840 C.3    18  ILE18       0.1595
     39  C         46.0050   24.2980    4.4480 C.2    18  ILE18       0.2287
     40  O         44.8840   24.1100    3.9810 O.2    18  ILE18      -0.2864
     41  CB        45.5180   25.9170    6.2210 C.3    18  ILE18       0.0276
     42  CG1       45.5050   27.4010    6.5730 C.3    18  ILE18       0.0022
     43  CG2       46.0400   25.0910    7.3850 C.3    18  ILE18       0.0022
     44  CD1       44.5140   27.7230    7.6600 C.3    18  ILE18       0.0001
     45  N         50.4600   26.0380    2.1140 N.3    21  TYR21      -0.1227
     46  CA        51.3040   27.2320    2.1630 C.3    21  TYR21       0.1736
     47  C         51.3040   27.9310    3.5230 C.2    21  TYR21       0.2596
     48  O         51.7980   29.0540    3.6460 O.2    21  TYR21      -0.2718
     49  CB        50.8430   28.2480    1.1100 C.3    21  TYR21       0.0548
     50  CG        50.9720   27.8020   -0.3280 C.ar   21  TYR21      -0.0200
     51  CD1       52.2190   27.7210   -0.9480 C.ar   21  TYR21      -0.0009
     52  CD2       49.8420   27.4890   -1.0830 C.ar   21  TYR21      -0.0009
     53  CE1       52.3390   27.3470   -2.2830 C.ar   21  TYR21       0.0417
     54  CE2       49.9510   27.1080   -2.4230 C.ar   21  TYR21       0.0417
     55  CZ        51.2030   27.0440   -3.0130 C.ar   21  TYR21       0.1957
     56  OH        51.3090   26.6980   -4.3380 O.3    21  TYR21      -0.2866
     57  N         50.7530   27.2910    4.5450 N.am   22  SER22      -0.1952
     58  CA        50.7020   27.9210    5.8590 C.3    22  SER22       0.1924
     59  C         51.9640   27.7000    6.6980 C.2    22  SER22       0.2314
     60  O         52.1950   28.4100    7.6720 O.2    22  SER22      -0.2863
     61  CB        49.4620   27.4360    6.6240 C.3    22  SER22       0.2116
     62  OG        49.4430   26.0230    6.7530 O.3    22  SER22      -0.2180
     63  N         53.5420   31.7600    5.8520 N.3    29  GLY29      -0.1210
     64  CA        52.7500   31.5550    7.0530 C.3    29  GLY29       0.1956
     65  C         53.1800   32.1560    8.3790 C.2    29  GLY29       0.2611
     66  O         52.3370   32.3940    9.2440 O.2    29  GLY29      -0.2717
     67  N         54.4720   32.3840    8.5670 N.am   30  TRP30      -0.1976
     68  CA        54.9400   32.9650    9.8200 C.3    30  TRP30       0.1640
     69  C         56.1390   33.8690    9.6020 C.2    30  TRP30       0.2290
     70  O         56.4570   34.7040   10.4510 O.2    30  TRP30      -0.2864
     71  CB        55.2940   31.8640   10.8260 C.3    30  TRP30       0.0576
     72  CG        54.3850   31.8430   12.0290 C.ar   30  TRP30       0.0006
     73  CD1       53.0340   31.6130   12.0390 C.ar   30  TRP30       0.0946
     74  CD2       54.7600   32.0810   13.3930 C.ar   30  TRP30       0.0152
     75  NE1       52.5470   31.6970   13.3240 N.ar   30  TRP30      -0.2442
     76  CE2       53.5840   31.9840   14.1740 C.ar   30  TRP30       0.0810
     77  CE3       55.9750   32.3720   14.0320 C.ar   30  TRP30       0.0012
     78  CZ2       53.5890   32.1640   15.5640 C.ar   30  TRP30       0.0191
     79  CZ3       55.9790   32.5510   15.4150 C.ar   30  TRP30       0.0001
     80  CH2       54.7920   32.4470   16.1640 C.ar   30  TRP30       0.0015
     81  N         56.6870   34.1060   -0.7690 N.3    44  CYS44      -0.1235
     82  CA        56.2790   34.4620    0.5830 C.3    44  CYS44       0.1677
     83  C         57.1500   35.5770    1.1700 C.2    44  CYS44       0.2270
     84  O         56.6490   36.4740    1.8550 O.2    44  CYS44      -0.2867
     85  CB        56.2850   33.2200    1.4890 C.3    44  CYS44       0.0956
     86  SG        55.0150   32.0030    1.0030 S.3    44  CYS44      -0.0801
     87  N         56.0430   38.6560   -0.3730 N.3    47  HIS47      -0.1226
     88  CA        54.7180   38.9230    0.1660 C.3    47  HIS47       0.1752
     89  C         54.7900   39.5190    1.5740 C.2    47  HIS47       0.2596
     90  O         54.0320   40.4390    1.8920 O.2    47  HIS47      -0.2718
     91  CB        53.8710   37.6410    0.1610 C.3    47  HIS47       0.0759
     92  CG        52.4290   37.8750    0.4950 C.ar   47  HIS47       0.0818
     93  ND1       51.8800   37.5350    1.7130 N.ar   47  HIS47      -0.2268
     94  CD2       51.4370   38.4650   -0.2120 C.ar   47  HIS47       0.1154
     95  CE1       50.6130   37.9080    1.7430 C.ar   47  HIS47       0.1986
     96  NE2       50.3190   38.4750    0.5880 N.ar   47  HIS47      -0.2212
     97  N         55.6930   39.0040    2.4110 N.am   48  ASP48      -0.1974
     98  CA        55.8370   39.5250    3.7680 C.3    48  ASP48       0.1709
     99  C         56.3370   40.9620    3.6460 C.2    48  ASP48       0.2293
    100  O         55.9020   41.8550    4.3720 O.2    48  ASP48      -0.2864
    101  CB        56.8510   38.7030    4.5850 C.3    48  ASP48       0.1436
    102  CG        56.2910   37.3660    5.0900 C.2    48  ASP48       0.3671
    103  OD1       55.1270   37.0260    4.8010 O.co2  48  ASP48      -0.2456
    104  OD2       57.0310   36.6420    5.7890 O.co2  48  ASP48      -0.2456
    105  N         53.5190   43.3580    2.6520 N.3    51  TYR51      -0.1241
    106  CA        52.7450   43.7320    3.8270 C.3    51  TYR51       0.1605
    107  C         53.5510   44.7160    4.6530 C.2    51  TYR51       0.2264
    108  O         52.9980   45.6130    5.2830 O.2    51  TYR51      -0.2867
    109  CB        52.4060   42.4950    4.6640 C.3    51  TYR51       0.0534
    110  CG        51.1900   41.7230    4.1820 C.ar   51  TYR51      -0.0201
    111  CD1       50.6220   41.9710    2.9290 C.ar   51  TYR51      -0.0009
    112  CD2       50.6270   40.7190    4.9700 C.ar   51  TYR51      -0.0009
    113  CE1       49.5240   41.2330    2.4750 C.ar   51  TYR51       0.0417
    114  CE2       49.5350   39.9750    4.5260 C.ar   51  TYR51       0.0417
    115  CZ        48.9910   40.2370    3.2800 C.ar   51  TYR51       0.1957
    116  OH        47.9220   39.4910    2.8410 O.3    51  TYR51      -0.2866
    117  N         45.7880   40.8850    7.5760 N.3    60  LYS60      -0.1245
    118  CA        45.1330   39.6660    8.0330 C.3    60  LYS60       0.1561
    119  C         43.6210   39.8020    8.1660 C.2    60  LYS60       0.2260
    120  O         42.8880   38.8560    7.8870 O.2    60  LYS60      -0.2867
    121  CB        45.6650   39.2510    9.4020 C.3    60  LYS60       0.0271
    122  CG        47.1360   38.9160    9.4920 C.3    60  LYS60       0.0035
    123  CD        47.5340   38.8680   10.9690 C.3    60  LYS60       0.0206
    124  CE        48.8950   38.2040   11.1940 C.3    60  LYS60       0.1093
    125  NZ        48.8490   36.7260   10.9620 N.3    60  LYS60      -0.1314
    126  N         52.8470   32.0320   -6.8450 N.3    96  PHE96      -0.1241
    127  CA        52.6470   30.6280   -6.4780 C.3    96  PHE96       0.1605
    128  C         52.3360   29.8040   -7.7230 C.2    96  PHE96       0.2264
    129  O         52.9140   28.7450   -7.9530 O.2    96  PHE96      -0.2867
    130  CB        51.4810   30.4670   -5.4910 C.3    96  PHE96       0.0534
    131  CG        51.8020   30.8770   -4.0830 C.ar   96  PHE96      -0.0203
    132  CD1       53.1140   30.8960   -3.6240 C.ar   96  PHE96      -0.0042
    133  CD2       50.7780   31.2170   -3.2010 C.ar   96  PHE96      -0.0042
    134  CE1       53.4000   31.2500   -2.3030 C.ar   96  PHE96      -0.0003
    135  CE2       51.0540   31.5700   -1.8830 C.ar   96  PHE96      -0.0003
    136  CZ        52.3650   31.5880   -1.4330 C.ar   96  PHE96      -0.0000
@<TRIPOS>BOND
     1   129   128    2
     2   128   127    1
     3   126   127    1
     4   127   130    1
     5   130   131    1
     6    27    26    2
     7    56    55    1
     8    26    25    1
     9   131   132   ar
    10   131   133   ar
    11   132   134   ar
    12    25    24    1
    13    25    28    1
    14   133   135   ar
    15    55    54   ar
    16    55    53   ar
    17    54    52   ar
    18   134   136   ar
    19    53    51   ar
    20    30    28    1
    21    28    29    1
    22    31    29    1
    23   135   136   ar
    24    23    22    2
    25    52    50   ar
    26    12    11    2
    27    51    50   ar
    28    17    15   ar
    29    17    19   ar
    30    81    82    1
    31    15    14   ar
    32    87    88    1
    33    22    21    1
    34    50    49    1
    35    94    92   ar
    36    94    96   ar
    37    19    18   ar
    38    11    10    1
    39    11    20   am
    40    91    88    1
    41    91    92    1
    42    88    89    1
    43    10     9    1
    44    10    13    1
    45    92    93   ar
    46    82    83    1
    47    82    85    1
    48    96    95   ar
    49    21    20    1
    50    14    13    1
    51    14    16   ar
    52    86    85    1
    53    32    33    1
    54    49    46    1
    55    83    84    2
    56    18    16   ar
    57    89    90    2
    58    89    97   am
    59    93    95   ar
    60    33    36    1
    61    33    34    1
    62    45    46    1
    63    46    47    1
    64    97    98    1
    65   113   111   ar
    66   113   115   ar
    67   105   106    1
    68   116   115    1
    69   111   110   ar
    70    34    35    2
    71    34    37   am
    72   115   114   ar
    73    47    48    2
    74    47    57   am
    75    99    98    1
    76    99   100    2
    77    98   101    1
    78     4     3    2
    79   106   107    1
    80   106   109    1
    81    37    38    1
    82    40    39    2
    83   110   109    1
    84   110   112   ar
    85    39    38    1
    86   114   112   ar
    87    57    58    1
    88   101   102    1
    89     3     2    1
    90   107   108    2
    91   103   102   ar
    92    38    41    1
    93   102   104   ar
    94     2     1    1
    95     2     5    1
    96    63    64    1
    97    58    61    1
    98    58    59    1
    99     7     6    1
   100    41    42    1
   101    41    43    1
   102    42    44    1
   103    61    62    1
   104    59    60    2
   105     5     6    1
   106     6     8    1
   107    64    65    1
   108   117   118    1
   109   120   119    2
   110   118   119    1
   111   118   121    1
   112    65    67   am
   113    65    66    2
   114    67    68    1
   115   121   122    1
   116   122   123    1
   117    69    68    1
   118    69    70    2
   119    68    71    1
   120    71    72    1
   121   125   124    1
   122   123   124    1
   123    72    73   ar
   124    72    74   ar
   125    73    75   ar
   126    75    76   ar
   127    74    77   ar
   128    74    76   ar
   129    77    79   ar
   130    76    78   ar
   131    79    80   ar
   132    78    80   ar
