@<TRIPOS>MOLECULE
tmp/1sviA00.pdb
 111 107 0 0 0
SMALL
GASTEIGER

@<TRIPOS>ATOM
      1  N         16.7270   36.0110   39.4760 N.3    31  ARG31      -0.1231
      2  CA        18.1180   36.1720   39.0910 C.3    31  ARG31       0.1694
      3  C         18.8280   37.1030   40.0540 C.2    31  ARG31       0.2593
      4  O         18.2320   38.0330   40.5830 O.2    31  ARG31      -0.2718
      5  CB        18.2260   36.7810   37.6970 C.3    31  ARG31       0.0321
      6  CG        17.8670   35.8490   36.5870 C.3    31  ARG31       0.0489
      7  CD        18.3130   36.3740   35.2240 C.3    31  ARG31       0.2205
      8  NE        17.6970   37.6540   34.9230 N.pl3  31  ARG31      -0.0865
      9  CZ        18.0500   38.4310   33.9080 C.cat  31  ARG31       0.5346
     10  NH1       17.4250   39.5820   33.7110 N.pl3  31  ARG31       0.1354
     11  NH2       19.0290   38.0600   33.0940 N.pl3  31  ARG31       0.1354
     12  N         20.1150   36.8490   40.2790 N.am   32  SER32      -0.1938
     13  CA        20.9090   37.7600   41.0970 C.3    32  SER32       0.2055
     14  C         20.7860   39.1600   40.5120 C.2    32  SER32       0.2643
     15  O         20.8330   39.3280   39.2990 O.2    32  SER32      -0.2714
     16  CB        22.3760   37.3360   41.1070 C.3    32  SER32       0.2130
     17  OG        22.5070   36.0270   41.6460 O.3    32  SER32      -0.2179
     18  N         20.6330   40.1490   41.3880 N.am   33  ASN33      -0.1957
     19  CA        20.5050   41.5630   41.0040 C.3    33  ASN33       0.1819
     20  C         19.1940   41.9640   40.3000 C.2    33  ASN33       0.2621
     21  O         19.0830   43.0780   39.7760 O.2    33  ASN33      -0.2715
     22  CB        21.7200   42.0330   40.1910 C.3    33  ASN33       0.1195
     23  CG        22.0660   43.4880   40.4500 C.2    33  ASN33       0.2630
     24  OD1       22.4270   43.8600   41.5670 O.2    33  ASN33      -0.2716
     25  ND2       21.9560   44.3180   39.4210 N.am   33  ASN33      -0.0877
     26  N         18.2050   41.0750   40.2960 N.am   34  VAL34      -0.1963
     27  CA        16.9200   41.3970   39.6780 C.3    34  VAL34       0.1727
     28  C         16.1500   42.3930   40.5450 C.2    34  VAL34       0.2617
     29  O         15.3070   43.1320   40.0480 O.2    34  VAL34      -0.2715
     30  CB        16.0470   40.1300   39.4180 C.3    34  VAL34       0.0290
     31  CG1       15.4980   39.5620   40.7330 C.3    34  VAL34       0.0023
     32  CG2       14.8900   40.4350   38.4400 C.3    34  VAL34       0.0023
     33  N         16.4320   42.4150   41.8450 N.am   35  GLY35      -0.1940
     34  CA        15.6970   43.2690   42.7530 C.3    35  GLY35       0.2014
     35  C         14.8880   42.5170   43.7960 C.2    35  GLY35       0.2639
     36  O         13.8910   43.0210   44.2940 O.2    35  GLY35      -0.2714
     37  N         15.3350   41.3180   44.1490 N.am   36  LYS36      -0.1963
     38  CA        14.6240   40.4850   45.1030 C.3    36  LYS36       0.1728
     39  C         14.6530   41.0550   46.5120 C.2    36  LYS36       0.2617
     40  O         13.6200   41.1610   47.1690 O.2    36  LYS36      -0.2715
     41  CB        15.2190   39.0740   45.1130 C.3    36  LYS36       0.0311
     42  CG        14.5940   38.1530   46.1380 C.3    36  LYS36       0.0038
     43  CD        14.4600   36.7350   45.5870 C.3    36  LYS36       0.0206
     44  CE        15.8240   36.1330   45.2660 C.3    36  LYS36       0.1093
     45  NZ        16.8110   36.2690   46.3900 N.3    36  LYS36      -0.1314
     46  N         15.8340   41.4340   46.9770 N.am   37  SER37      -0.1936
     47  CA        15.9450   41.9740   48.3190 C.3    37  SER37       0.2055
     48  C         15.1510   43.2780   48.3960 C.2    37  SER37       0.2643
     49  O         14.4820   43.5460   49.3940 O.2    37  SER37      -0.2714
     50  CB        17.4130   42.1660   48.7250 C.3    37  SER37       0.2130
     51  OG        17.9590   43.3400   48.1650 O.3    37  SER37      -0.2179
     52  N         15.2110   44.0690   47.3300 N.am   38  SER38      -0.1949
     53  CA        14.4510   45.3150   47.2730 C.3    38  SER38       0.1924
     54  C         12.9450   45.0110   47.3580 C.2    38  SER38       0.2314
     55  O         12.2070   45.7330   48.0020 O.2    38  SER38      -0.2863
     56  CB        14.7800   46.1090   45.9990 C.3    38  SER38       0.2116
     57  OG        16.0990   46.6340   46.0220 O.3    38  SER38      -0.2180
     58  N          9.5090   43.2110   38.1040 N.3   129  THR129     -0.1203
     59  CA         9.8980   44.4310   38.8050 C.3   129  THR129      0.1994
     60  C         10.6890   45.4040   37.9310 C.2   129  THR129      0.2617
     61  O         10.8310   45.1790   36.7400 O.2   129  THR129     -0.2717
     62  CB        10.6460   44.0690   40.1150 C.3   129  THR129      0.1784
     63  OG1       10.9170   45.2560   40.8750 O.3   129  THR129     -0.2211
     64  CG2       12.0380   43.4770   39.7960 C.3   129  THR129      0.0376
     65  N         11.1650   46.4940   38.5300 N.am  130  LYS130     -0.1979
     66  CA        11.8400   47.5760   37.8110 C.3   130  LYS130      0.1596
     67  C         10.9180   48.2710   36.7860 C.2   130  LYS130      0.2287
     68  O         11.3750   48.8650   35.8090 O.2   130  LYS130     -0.2864
     69  CB        13.1580   47.0800   37.1790 C.3   130  LYS130      0.0298
     70  CG        14.1940   46.6890   38.2380 C.3   130  LYS130      0.0038
     71  CD        15.5370   46.2650   37.6390 C.3   130  LYS130      0.0206
     72  CE        16.5560   46.0040   38.7360 C.3   130  LYS130      0.1093
     73  NZ        17.7480   45.2190   38.2710 N.3   130  LYS130     -0.1314
     74  N          9.4080   50.9190   36.8610 N.3   132  ASP132     -0.1225
     75  CA         9.6400   52.3500   36.7870 C.3   132  ASP132      0.1805
     76  C         10.6550   52.7140   35.7000 C.2   132  ASP132      0.2597
     77  O         10.7360   53.8630   35.2830 O.2   132  ASP132     -0.2718
     78  CB        10.0970   52.8790   38.1500 C.3   132  ASP132      0.1424
     79  CG        11.3810   52.2290   38.6260 C.2   132  ASP132      0.3668
     80  OD1       11.3340   51.0530   39.0860 O.co2 132  ASP132     -0.2456
     81  OD2       12.4790   52.8220   38.5680 O.co2 132  ASP132     -0.2456
     82  N         11.4290   51.7330   35.2450 N.am  133  LYS133     -0.1979
     83  CA        12.4360   52.0070   34.2250 C.3   133  LYS133      0.1596
     84  C         11.8520   51.9570   32.8220 C.2   133  LYS133      0.2287
     85  O         12.5350   52.2260   31.8370 O.2   133  LYS133     -0.2864
     86  CB        13.6200   51.0550   34.3720 C.3   133  LYS133      0.0298
     87  CG        14.0660   50.9130   35.8220 C.3   133  LYS133      0.0038
     88  CD        15.3900   50.1800   35.9560 C.3   133  LYS133      0.0206
     89  CE        16.5560   51.0560   35.5260 C.3   133  LYS133      0.1093
     90  NZ        16.4770   52.4060   36.1450 N.3   133  LYS133     -0.1314
     91  N          7.4270   47.7900   41.2640 N.3   162  SER162     -0.1202
     92  CA         8.5890   48.6620   41.3520 C.3   162  SER162      0.2020
     93  C          8.9690   48.8850   42.8080 C.2   162  SER162      0.2619
     94  O          8.1580   49.3760   43.5850 O.2   162  SER162     -0.2717
     95  CB         8.3350   50.0150   40.6910 C.3   162  SER162      0.2103
     96  OG         9.3900   50.9100   41.0020 O.3   162  SER162     -0.2182
     97  N         10.1960   48.5400   43.1870 N.am  163  SER163     -0.1937
     98  CA        10.6400   48.7910   44.5540 C.3   163  SER163      0.2055
     99  C         10.9250   50.2810   44.7290 C.2   163  SER163      0.2642
    100  O         11.0410   50.7900   45.8500 O.2   163  SER163     -0.2714
    101  CB        11.8860   47.9730   44.8800 C.3   163  SER163      0.2130
    102  OG        11.5650   46.5990   44.9960 O.3   163  SER163     -0.2179
    103  N         11.0380   50.9840   43.6080 N.am  164  GLU164     -0.1976
    104  CA        11.2690   52.4180   43.6470 C.3   164  GLU164      0.1602
    105  C          9.9900   53.1410   44.0610 C.2   164  GLU164      0.2287
    106  O          9.9850   53.9590   44.9850 O.2   164  GLU164     -0.2864
    107  CB        11.7470   52.9160   42.2730 C.3   164  GLU164      0.0415
    108  CG        12.2280   54.3600   42.2590 C.3   164  GLU164      0.1163
    109  CD        13.6590   54.5050   42.7530 C.2   164  GLU164      0.3649
    110  OE1       13.9010   54.3250   43.9710 O.co2 164  GLU164     -0.2457
    111  OE2       14.5480   54.7990   41.9200 O.co2 164  GLU164     -0.2457
@<TRIPOS>BOND
     1    85    84    2
     2    84    83    1
     3    11     9    1
     4    10     9    1
     5     9     8    2
     6    83    86    1
     7    83    82    1
     8    86    87    1
     9     8     7    1
    10     7     6    1
    11    82    76   am
    12    77    76    2
    13    89    88    1
    14    89    90    1
    15    76    75    1
    16    68    67    2
    17    87    88    1
    18     6     5    1
    19    61    60    2
    20    67    66    1
    21    75    74    1
    22    75    78    1
    23    69    66    1
    24    69    70    1
    25    71    70    1
    26    71    72    1
    27     5     2    1
    28    66    65    1
    29    60    65   am
    30    60    59    1
    31    58    59    1
    32    78    79    1
    33    73    72    1
    34    32    30    1
    35    81    79   ar
    36    79    80   ar
    37    59    62    1
    38     2     1    1
    39     2     3    1
    40    15    14    2
    41    30    27    1
    42    30    31    1
    43    25    23   am
    44    27    26    1
    45    27    28    1
    46    21    20    2
    47    64    62    1
    48    29    28    2
    49     3    12   am
    50     3     4    2
    51    62    63    1
    52    22    23    1
    53    22    19    1
    54    12    13    1
    55    26    20   am
    56    20    19    1
    57    23    24    2
    58    14    13    1
    59    14    18   am
    60    28    33   am
    61    95    96    1
    62    95    92    1
    63    19    18    1
    64    13    16    1
    65    16    17    1
    66    91    92    1
    67    92    93    1
    68    33    34    1
    69   111   109   ar
    70   108   107    1
    71   108   109    1
    72   107   104    1
    73    34    35    1
    74   109   110   ar
    75    93    97   am
    76    93    94    2
    77    97    98    1
    78   103   104    1
    79   103    99   am
    80   104   105    1
    81    35    37   am
    82    35    36    2
    83   105   106    2
    84    37    38    1
    85    98    99    1
    86    98   101    1
    87    99   100    2
    88   101   102    1
    89    38    41    1
    90    38    39    1
    91    41    42    1
    92    44    43    1
    93    44    45    1
    94    43    42    1
    95    56    57    1
    96    56    53    1
    97    39    46   am
    98    39    40    2
    99    46    47    1
   100    53    52    1
   101    53    54    1
   102    52    48   am
   103    54    55    2
   104    51    50    1
   105    47    48    1
   106    47    50    1
   107    48    49    2
