@<TRIPOS>MOLECULE
tmp/1svlC01.pdb
 156 150 0 0 0
SMALL
GASTEIGER

@<TRIPOS>ATOM
      1  N         43.6860   50.9970    1.9160 N.3   128  TRP128     -0.1241
      2  CA        44.2510   49.8170    2.5620 C.3   128  TRP128      0.1605
      3  C         43.4040   49.4150    3.7690 C.2   128  TRP128      0.2264
      4  O         43.0390   48.2430    3.9270 O.2   128  TRP128     -0.2867
      5  CB        45.6870   50.0990    3.0010 C.3   128  TRP128      0.0550
      6  CG        46.4030   48.8840    3.5190 C.ar  128  TRP128      0.0003
      7  CD1       47.2620   48.0800    2.8320 C.ar  128  TRP128      0.0946
      8  CD2       46.3430   48.3650    4.8540 C.ar  128  TRP128      0.0152
      9  NE1       47.7480   47.0880    3.6670 N.ar  128  TRP128     -0.2442
     10  CE2       47.1970   47.2460    4.9100 C.ar  128  TRP128      0.0810
     11  CE3       45.6480   48.7430    6.0120 C.ar  128  TRP128      0.0012
     12  CZ2       47.3750   46.5030    6.0850 C.ar  128  TRP128      0.0191
     13  CZ3       45.8260   47.9950    7.1810 C.ar  128  TRP128      0.0001
     14  CH2       46.6830   46.8930    7.2020 C.ar  128  TRP128      0.0015
     15  N         40.8860   46.0560    5.2700 N.3   132  LEU132     -0.1245
     16  CA        41.3080   45.3200    6.4630 C.3   132  LEU132      0.1561
     17  C         40.1660   44.5440    7.1020 C.2   132  LEU132      0.2260
     18  O         40.3630   43.4570    7.6420 O.2   132  LEU132     -0.2867
     19  CB        41.9400   46.2790    7.4990 C.3   132  LEU132      0.0270
     20  CG        42.4050   45.6720    8.8320 C.3   132  LEU132      0.0019
     21  CD1       43.4910   44.6110    8.5820 C.3   132  LEU132      0.0001
     22  CD2       42.9680   46.7920    9.7350 C.3   132  LEU132      0.0001
     23  N         48.2770   36.9900   15.4940 N.3   163  ILE163     -0.1231
     24  CA        49.2480   38.0490   15.5410 C.3   163  ILE163      0.1692
     25  C         49.3230   38.6210   14.1160 C.2   163  ILE163      0.2592
     26  O         49.1540   37.8980   13.1250 O.2   163  ILE163     -0.2718
     27  CB        50.6240   37.5130   15.9560 C.3   163  ILE163      0.0266
     28  CG1       51.5620   38.6740   16.2680 C.3   163  ILE163      0.0019
     29  CG2       51.2400   36.7000   14.8470 C.3   163  ILE163      0.0020
     30  CD1       51.2290   39.3550   17.5640 C.3   163  ILE163      0.0001
     31  N         49.5600   39.9230   14.0220 N.am  164  ASP164     -0.1960
     32  CA        49.6720   40.5910   12.7390 C.3   164  ASP164      0.1840
     33  C         48.4280   40.5340   11.8770 C.2   164  ASP164      0.2623
     34  O         48.5070   40.3210   10.6640 O.2   164  ASP164     -0.2715
     35  CB        50.8650   40.0350   11.9660 C.3   164  ASP164      0.1450
     36  CG        52.1800   40.4320   12.5940 C.2   164  ASP164      0.3671
     37  OD1       53.2300   39.8350   12.2640 O.co2 164  ASP164     -0.2456
     38  OD2       52.1560   41.3650   13.4280 O.co2 164  ASP164     -0.2456
     39  N         47.2740   40.7320   12.4930 N.am  165  SER165     -0.1936
     40  CA        46.0530   40.7390   11.7200 C.3   165  SER165      0.2055
     41  C         45.3760   42.1250   11.7590 C.2   165  SER165      0.2644
     42  O         44.2600   42.2800   11.2640 O.2   165  SER165     -0.2714
     43  CB        45.1020   39.6450   12.1930 C.3   165  SER165      0.2130
     44  OG        44.5800   39.9150   13.4720 O.3   165  SER165     -0.2179
     45  N         46.0560   43.1140   12.3590 N.am  166  GLY166     -0.1939
     46  CA        45.5290   44.4770   12.3970 C.3   166  GLY166      0.2014
     47  C         44.8090   44.9840   13.6320 C.2   166  GLY166      0.2639
     48  O         44.2410   46.0860   13.6140 O.2   166  GLY166     -0.2714
     49  N         44.8430   44.2130   14.7160 N.am  167  LYS167     -0.1963
     50  CA        44.1370   44.6030   15.9280 C.3   167  LYS167      0.1728
     51  C         44.6610   45.9180   16.5410 C.2   167  LYS167      0.2617
     52  O         43.8810   46.8070   16.8540 O.2   167  LYS167     -0.2715
     53  CB        44.2190   43.4610   16.9580 C.3   167  LYS167      0.0311
     54  CG        43.6190   42.1370   16.4500 C.3   167  LYS167      0.0038
     55  CD        43.5520   41.0560   17.5600 C.3   167  LYS167      0.0206
     56  CE        44.9290   40.6760   18.0890 C.3   167  LYS167      0.1093
     57  NZ        45.8360   40.1960   17.0280 N.3   167  LYS167     -0.1314
     58  N         45.9740   46.0080   16.6990 N.am  168  THR168     -0.1937
     59  CA        46.6250   47.1790   17.2720 C.3   168  THR168      0.2028
     60  C         46.5940   48.3530   16.2910 C.2   168  THR168      0.2642
     61  O         46.3890   49.5050   16.6970 O.2   168  THR168     -0.2714
     62  CB        48.0740   46.8430   17.6720 C.3   168  THR168      0.1808
     63  OG1       48.0530   45.8770   18.7340 O.3   168  THR168     -0.2208
     64  CG2       48.8140   48.0930   18.1580 C.3   168  THR168      0.0379
     65  N         46.7730   48.0500   15.0090 N.am  169  THR169     -0.1950
     66  CA        46.7300   49.0710   13.9700 C.3   169  THR169      0.1897
     67  C         45.4230   49.8490   14.0520 C.2   169  THR169      0.2313
     68  O         45.4340   51.0810   14.0960 O.2   169  THR169     -0.2863
     69  CB        46.8250   48.4520   12.5570 C.3   169  THR169      0.1794
     70  OG1       48.1060   47.8410   12.3870 O.3   169  THR169     -0.2208
     71  CG2       46.6240   49.5180   11.4810 C.3   169  THR169      0.0378
     72  N         44.8020   37.9360   21.2670 N.3   264  ASN264     -0.1240
     73  CA        45.4160   37.0640   20.2620 C.3   264  ASN264      0.1653
     74  C         44.8640   35.6520   20.1030 C.2   264  ASN264      0.2266
     75  O         45.6010   34.7410   19.7100 O.2   264  ASN264     -0.2867
     76  CB        46.9280   36.9550   20.4850 C.3   264  ASN264      0.1155
     77  CG        47.6710   38.1960   20.0600 C.2   264  ASN264      0.2627
     78  OD1       47.3860   38.7830   19.0100 O.2   264  ASN264     -0.2716
     79  ND2       48.6480   38.6010   20.8640 N.am  264  ASN264     -0.0877
     80  N         41.6780   39.0120   10.4860 N.3   283  ARG283     -0.1231
     81  CA        42.3040   37.8830    9.8320 C.3   283  ARG283      0.1679
     82  C         43.4420   38.3320    8.9490 C.2   283  ARG283      0.2434
     83  O         43.3420   39.3410    8.2550 O.2   283  ARG283     -0.2733
     84  CB        41.2460   37.1200    9.0220 C.3   283  ARG283      0.0321
     85  CG        41.6190   35.6830    8.6850 C.3   283  ARG283      0.0489
     86  CD        40.3650   34.8150    8.6040 C.3   283  ARG283      0.2205
     87  NE        39.5850   34.8830    9.8410 N.pl3 283  ARG283     -0.0865
     88  CZ        38.4930   34.1610   10.0830 C.cat 283  ARG283      0.5346
     89  NH1       38.0410   33.3040    9.1720 N.pl3 283  ARG283      0.1354
     90  NH2       37.8550   34.2860   11.2430 N.pl3 283  ARG283      0.1354
     91  N         44.5640   37.6030    8.9870 N.am  284  PRO284     -0.2718
     92  CA        45.7080   37.9680    8.1550 C.3   284  PRO284      0.1535
     93  C         45.3150   37.8270    6.6780 C.2   284  PRO284      0.2598
     94  O         44.5640   36.9170    6.3060 O.2   284  PRO284     -0.2715
     95  CB        46.7780   36.9670    8.5770 C.3   284  PRO284      0.0310
     96  CG        46.4140   36.6740   10.0260 C.3   284  PRO284      0.0237
     97  CD        44.9160   36.5520    9.9580 C.3   284  PRO284      0.0939
     98  N         45.8020   38.7350    5.8390 N.am  285  LYS285     -0.1978
     99  CA        45.4920   38.6910    4.4130 C.3   285  LYS285      0.1596
    100  C         46.7880   38.9330    3.6900 C.2   285  LYS285      0.2287
    101  O         47.4060   39.9860    3.8410 O.2   285  LYS285     -0.2864
    102  CB        44.4770   39.7730    4.0320 C.3   285  LYS285      0.0298
    103  CG        43.1510   39.6270    4.7330 C.3   285  LYS285      0.0038
    104  CD        42.1730   40.7150    4.3220 C.3   285  LYS285      0.0206
    105  CE        40.8580   40.5620    5.0520 C.3   285  LYS285      0.1093
    106  NZ        39.7920   41.4200    4.4730 N.3   285  LYS285     -0.1314
    107  N         47.1780   42.1560    1.7290 N.3   288  LEU288     -0.1231
    108  CA        47.3920   43.3490    2.5500 C.3   288  LEU288      0.1693
    109  C         48.8780   43.4720    2.8400 C.2   288  LEU288      0.2591
    110  O         49.4180   44.5720    2.8660 O.2   288  LEU288     -0.2718
    111  CB        46.6100   43.2790    3.8610 C.3   288  LEU288      0.0284
    112  CG        45.0930   43.3950    3.7640 C.3   288  LEU288      0.0019
    113  CD1       44.4980   43.3110    5.1560 C.3   288  LEU288      0.0001
    114  CD2       44.6970   44.7170    3.0830 C.3   288  LEU288      0.0001
    115  N         49.5420   42.3320    3.0440 N.am  289  LYS289     -0.1980
    116  CA        50.9810   42.3050    3.2990 C.3   289  LYS289      0.1596
    117  C         51.7380   42.6520    2.0200 C.2   289  LYS289      0.2287
    118  O         52.6100   43.5220    2.0090 O.2   289  LYS289     -0.2864
    119  CB        51.4200   40.9090    3.7660 C.3   289  LYS289      0.0298
    120  CG        52.9180   40.8130    4.0290 C.3   289  LYS289      0.0038
    121  CD        53.3960   39.3760    4.1700 C.3   289  LYS289      0.0206
    122  CE        53.4200   38.6920    2.8140 C.3   289  LYS289      0.1093
    123  NZ        53.8060   37.2460    2.8620 N.3   289  LYS289     -0.1314
    124  N         51.5800   46.3250    1.1840 N.3   292  LEU292     -0.1245
    125  CA        52.4650   47.1540    2.0000 C.3   292  LEU292      0.1561
    126  C         53.9080   47.0940    1.5350 C.2   292  LEU292      0.2260
    127  O         54.6050   48.1210    1.5040 O.2   292  LEU292     -0.2867
    128  CB        52.3650   46.7490    3.4730 C.3   292  LEU292      0.0270
    129  CG        51.1060   47.2540    4.1840 C.3   292  LEU292      0.0019
    130  CD1       51.0320   46.6620    5.5900 C.3   292  LEU292      0.0001
    131  CD2       51.1420   48.7860    4.2570 C.3   292  LEU292      0.0001
    132  N         53.7890   52.7030    5.8810 N.3   299  LEU299     -0.1245
    133  CA        54.3440   52.3350    7.1780 C.3   299  LEU299      0.1561
    134  C         55.3880   53.3570    7.5920 C.2   299  LEU299      0.2260
    135  O         55.4100   53.8050    8.7400 O.2   299  LEU299     -0.2867
    136  CB        54.9810   50.9370    7.1130 C.3   299  LEU299      0.0270
    137  CG        54.0130   49.7490    7.1360 C.3   299  LEU299      0.0019
    138  CD1       54.8130   48.4590    7.0210 C.3   299  LEU299      0.0001
    139  CD2       53.1880   49.7480    8.4160 C.3   299  LEU299      0.0001
    140  N         48.5420   54.1050    8.1440 N.3   304  ILE304     -0.1231
    141  CA        47.4640   53.1710    8.4940 C.3   304  ILE304      0.1692
    142  C         47.1360   53.0900    9.9810 C.2   304  ILE304      0.2591
    143  O         46.0340   52.6590   10.3570 O.2   304  ILE304     -0.2718
    144  CB        47.7360   51.7450    7.8960 C.3   304  ILE304      0.0266
    145  CG1       48.9890   51.1110    8.5130 C.3   304  ILE304      0.0019
    146  CG2       48.0110   51.8730    6.3910 C.3   304  ILE304      0.0020
    147  CD1       49.2920   49.7200    7.9380 C.3   304  ILE304      0.0001
    148  N         48.0710   53.5370   10.8300 N.am  305  GLN305     -0.1979
    149  CA        47.8480   53.5540   12.2800 C.3   305  GLN305      0.1601
    150  C         47.2540   54.9040   12.7180 C.2   305  GLN305      0.2287
    151  O         46.9810   55.1170   13.8950 O.2   305  GLN305     -0.2864
    152  CB        49.1670   53.3830   13.0560 C.3   305  GLN305      0.0394
    153  CG        49.9440   52.1250   12.7910 C.3   305  GLN305      0.0908
    154  CD        50.7680   52.1960   11.5350 C.2   305  GLN305      0.2608
    155  OE1       50.9380   53.2670   10.9430 O.2   305  GLN305     -0.2717
    156  NE2       51.3080   51.0480   11.1180 N.am  305  GLN305     -0.0878
@<TRIPOS>BOND
     1   124   125    1
     2   127   126    2
     3   126   125    1
     4   107   108    1
     5     1     2    1
     6   125   128    1
     7   118   117    2
     8   117   116    1
     9   108   109    1
    10   108   111    1
    11     2     5    1
    12     2     3    1
    13   122   123    1
    14   122   121    1
    15     7     6   ar
    16     7     9   ar
    17   109   110    2
    18   109   115   am
    19     5     6    1
    20   115   116    1
    21   114   112    1
    22   116   119    1
    23   128   129    1
    24     6     8   ar
    25     9    10   ar
    26   100   101    2
    27   100    99    1
    28   112   111    1
    29   112   113    1
    30   119   120    1
    31     3     4    2
    32   120   121    1
    33   102    99    1
    34   102   103    1
    35   129   131    1
    36   129   130    1
    37   104   103    1
    38   104   105    1
    39    99    98    1
    40   106   105    1
    41     8    10   ar
    42     8    11   ar
    43    10    12   ar
    44    15    16    1
    45    98    93   am
    46   132   133    1
    47    11    13   ar
    48    12    14   ar
    49    94    93    2
    50   146   144    1
    51    16    17    1
    52    16    19    1
    53    93    92    1
    54   138   137    1
    55    17    18    2
    56   136   137    1
    57   136   133    1
    58   137   139    1
    59   133   134    1
    60    13    14   ar
    61    19    20    1
    62   134   135    2
    63   144   141    1
    64   144   145    1
    65   147   145    1
    66   140   141    1
    67    92    95    1
    68    92    91    1
    69    83    82    2
    70   141   142    1
    71    95    96    1
    72    21    20    1
    73    86    85    1
    74    86    87    1
    75    85    84    1
    76    20    22    1
    77    82    91   am
    78    82    81    1
    79    91    97    1
    80    84    81    1
    81    89    88    1
    82    81    80    1
    83    87    88    2
    84    97    96    1
    85   142   143    2
    86   142   148   am
    87    88    90    1
    88    34    33    2
    89   148   149    1
    90   155   154    2
    91   156   154   am
    92    42    41    2
    93    71    69    1
    94   154   153    1
    95    40    41    1
    96    40    43    1
    97    40    39    1
    98    41    45   am
    99    33    39   am
   100    33    32    1
   101    35    36    1
   102    35    32    1
   103    43    44    1
   104    37    36   ar
   105   149   150    1
   106   149   152    1
   107    45    46    1
   108    70    69    1
   109    46    47    1
   110    69    66    1
   111    36    38   ar
   112   150   151    2
   113    32    31    1
   114   153   152    1
   115    26    25    2
   116    48    47    2
   117    47    49   am
   118    66    67    1
   119    66    65    1
   120    31    25   am
   121    67    68    2
   122    25    24    1
   123    49    50    1
   124    29    27    1
   125    65    60   am
   126    23    24    1
   127    24    27    1
   128    50    51    1
   129    50    53    1
   130    27    28    1
   131    28    30    1
   132    60    61    2
   133    60    59    1
   134    54    53    1
   135    54    55    1
   136    51    58   am
   137    51    52    2
   138    58    59    1
   139    57    56    1
   140    59    62    1
   141    55    56    1
   142    62    64    1
   143    62    63    1
   144    78    77    2
   145    75    74    2
   146    77    76    1
   147    77    79   am
   148    74    73    1
   149    73    76    1
   150    73    72    1
