@<TRIPOS>MOLECULE
tmp/1svmC00.pdb
 164 157 0 0 0
SMALL
GASTEIGER

@<TRIPOS>ATOM
      1  N        112.5690   48.3730   79.7060 N.3   129  TRP129     -0.1241
      2  CA       111.7490   47.3710   79.0400 C.3   129  TRP129      0.1605
      3  C        112.3260   47.0540   77.6650 C.2   129  TRP129      0.2264
      4  O        112.4900   45.8860   77.3030 O.2   129  TRP129     -0.2867
      5  CB       110.3090   47.8750   78.8820 C.3   129  TRP129      0.0550
      6  CG       109.3580   46.8140   78.4000 C.ar  129  TRP129      0.0003
      7  CD1      108.6130   45.9640   79.1720 C.ar  129  TRP129      0.0946
      8  CD2      109.0730   46.4730   77.0370 C.ar  129  TRP129      0.0152
      9  NE1      107.8810   45.1180   78.3730 N.ar  129  TRP129     -0.2442
     10  CE2      108.1440   45.4070   77.0580 C.ar  129  TRP129      0.0810
     11  CE3      109.5110   46.9670   75.7980 C.ar  129  TRP129      0.0012
     12  CZ2      107.6420   44.8230   75.8830 C.ar  129  TRP129      0.0191
     13  CZ3      109.0110   46.3860   74.6270 C.ar  129  TRP129      0.0001
     14  CH2      108.0860   45.3260   74.6820 C.ar  129  TRP129      0.0015
     15  N        113.9700   43.5130   75.3280 N.3   133  LEU133     -0.1245
     16  CA       113.2850   42.9980   74.1420 C.3   133  LEU133      0.1561
     17  C        114.1830   42.1300   73.2620 C.2   133  LEU133      0.2260
     18  O        113.7420   41.1080   72.7360 O.2   133  LEU133     -0.2867
     19  CB       112.7110   44.1540   73.3060 C.3   133  LEU133      0.0270
     20  CG       111.8570   43.7590   72.0950 C.3   133  LEU133      0.0019
     21  CD1      110.6470   42.9360   72.5560 C.3   133  LEU133      0.0001
     22  CD2      111.3950   45.0190   71.3690 C.3   133  LEU133      0.0001
     23  N        103.0950   37.0100   66.1110 N.3   164  ILE164     -0.1231
     24  CA       102.2690   38.1360   66.5270 C.3   164  ILE164      0.1692
     25  C        102.7100   38.5960   67.9170 C.2   164  ILE164      0.2592
     26  O        103.0450   37.7760   68.7800 O.2   164  ILE164     -0.2718
     27  CB       100.7830   37.7260   66.5990 C.3   164  ILE164      0.0266
     28  CG1      100.2790   37.3500   65.2050 C.3   164  ILE164      0.0019
     29  CG2       99.9550   38.8510   67.2080 C.3   164  ILE164      0.0020
     30  CD1       98.8780   36.7730   65.2020 C.3   164  ILE164      0.0001
     31  N        102.7100   39.9090   68.1250 N.am  165  ASP165     -0.1960
     32  CA       103.0800   40.5020   69.4040 C.3   165  ASP165      0.1840
     33  C        104.4500   40.0720   69.9370 C.2   165  ASP165      0.2623
     34  O        104.5750   39.6710   71.1000 O.2   165  ASP165     -0.2715
     35  CB       102.0100   40.1930   70.4580 C.3   165  ASP165      0.1450
     36  CG       100.6510   40.8000   70.1220 C.2   165  ASP165      0.3671
     37  OD1      100.5470   41.5640   69.1360 O.co2 165  ASP165     -0.2456
     38  OD2       99.6800   40.5120   70.8550 O.co2 165  ASP165     -0.2456
     39  N        105.4740   40.1590   69.0900 N.am  166  SER166     -0.1936
     40  CA       106.8300   39.8040   69.4950 C.3   166  SER166      0.2055
     41  C        107.7370   41.0400   69.5710 C.2   166  SER166      0.2644
     42  O        108.9170   40.9310   69.9110 O.2   166  SER166     -0.2714
     43  CB       107.4250   38.7630   68.5380 C.3   166  SER166      0.2130
     44  OG       107.4340   39.2180   67.1940 O.3   166  SER166     -0.2179
     45  N        107.1790   42.2090   69.2530 N.am  167  GLY167     -0.1939
     46  CA       107.9340   43.4520   69.3230 C.3   167  GLY167      0.2014
     47  C        108.4120   44.1100   68.0320 C.2   167  GLY167      0.2639
     48  O        109.0320   45.1770   68.0770 O.2   167  GLY167     -0.2714
     49  N        108.1270   43.4950   66.8890 N.am  168  LYS168     -0.1963
     50  CA       108.5620   44.0260   65.5950 C.3   168  LYS168      0.1728
     51  C        108.1200   45.4750   65.3460 C.2   168  LYS168      0.2617
     52  O        108.9430   46.3550   65.0790 O.2   168  LYS168     -0.2715
     53  CB       108.0440   43.1190   64.4750 C.3   168  LYS168      0.0311
     54  CG       108.4470   41.6420   64.6370 C.3   168  LYS168      0.0038
     55  CD       107.9350   40.7790   63.4820 C.3   168  LYS168      0.0206
     56  CE       106.4080   40.8280   63.3570 C.3   168  LYS168      0.1093
     57  NZ       105.7040   40.2850   64.5540 N.3   168  LYS168     -0.1314
     58  N        106.8200   45.7170   65.4360 N.am  169  THR169     -0.1937
     59  CA       106.2810   47.0550   65.2220 C.3   169  THR169      0.2028
     60  C        106.7470   48.0310   66.2920 C.2   169  THR169      0.2642
     61  O        107.1170   49.1680   65.9880 O.2   169  THR169     -0.2714
     62  CB       104.7370   47.0080   65.1860 C.3   169  THR169      0.1808
     63  OG1      104.3270   46.3440   63.9870 O.3   169  THR169     -0.2208
     64  CG2      104.1300   48.4060   65.2400 C.3   169  THR169      0.0379
     65  N        106.7440   47.5920   67.5460 N.am  170  THR170     -0.1950
     66  CA       107.1720   48.4560   68.6410 C.3   170  THR170      0.1897
     67  C        108.5510   49.0630   68.3650 C.2   170  THR170      0.2313
     68  O        108.7440   50.2730   68.4830 O.2   170  THR170     -0.2863
     69  CB       107.2280   47.6760   69.9770 C.3   170  THR170      0.1794
     70  OG1      105.9510   47.0820   70.2320 O.3   170  THR170     -0.2208
     71  CG2      107.5770   48.6090   71.1320 C.3   170  THR170      0.0378
     72  N        104.4410   45.2030   58.3290 N.3   210  ASP210     -0.1239
     73  CA       103.6430   43.9880   58.2230 C.3   210  ASP210      0.1674
     74  C        103.3620   43.5150   56.7990 C.2   210  ASP210      0.2266
     75  O        102.2050   43.4620   56.3740 O.2   210  ASP210     -0.2867
     76  CB       102.3160   44.1970   58.9580 C.3   210  ASP210      0.1410
     77  CG       101.9440   43.0170   59.8280 C.2   210  ASP210      0.3668
     78  OD1      102.0500   41.8690   59.3460 O.co2 210  ASP210     -0.2456
     79  OD2      101.5420   43.2370   60.9910 O.co2 210  ASP210     -0.2456
     80  N        105.4300   38.5590   59.5490 N.3   265  ASN265     -0.1240
     81  CA       105.2350   37.3440   60.3200 C.3   265  ASN265      0.1653
     82  C        106.1150   36.3030   59.6370 C.2   265  ASN265      0.2266
     83  O        106.8490   36.6260   58.6990 O.2   265  ASN265     -0.2867
     84  CB       103.7640   36.9250   60.3130 C.3   265  ASN265      0.1155
     85  CG       102.9230   37.7780   61.2320 C.2   265  ASN265      0.2627
     86  OD1      101.9210   38.3600   60.8180 O.2   265  ASN265     -0.2716
     87  ND2      103.3340   37.8670   62.4940 N.am  265  ASN265     -0.0877
     88  N        110.9400   37.3340   69.4830 N.3   284  ARG284     -0.1231
     89  CA       110.2740   36.2620   70.2090 C.3   284  ARG284      0.1679
     90  C        109.4390   36.7590   71.3810 C.2   284  ARG284      0.2434
     91  O        109.8790   37.6020   72.1650 O.2   284  ARG284     -0.2733
     92  CB       111.3050   35.2560   70.7340 C.3   284  ARG284      0.0321
     93  CG       112.0940   34.5230   69.6590 C.3   284  ARG284      0.0489
     94  CD       113.0390   33.4990   70.2830 C.3   284  ARG284      0.2205
     95  NE       113.8100   32.7710   69.2770 N.pl3 284  ARG284     -0.0865
     96  CZ       114.6570   31.7820   69.5500 C.cat 284  ARG284      0.5346
     97  NH1      114.8480   31.3920   70.8040 N.pl3 284  ARG284      0.1354
     98  NH2      115.3140   31.1790   68.5670 N.pl3 284  ARG284      0.1354
     99  N        108.2100   36.2400   71.5100 N.am  285  PRO285     -0.2718
    100  CA       107.3260   36.6370   72.6050 C.3   285  PRO285      0.1535
    101  C        107.9490   36.1870   73.9320 C.2   285  PRO285      0.2598
    102  O        108.5720   35.1280   74.0000 O.2   285  PRO285     -0.2715
    103  CB       106.0360   35.8780   72.3020 C.3   285  PRO285      0.0310
    104  CG       106.0720   35.7120   70.8080 C.3   285  PRO285      0.0237
    105  CD       107.5100   35.3570   70.5610 C.3   285  PRO285      0.0939
    106  N        107.7870   36.9930   74.9730 N.am  286  LYS286     -0.1978
    107  CA       108.3190   36.6660   76.2910 C.3   286  LYS286      0.1596
    108  C        107.2550   36.9850   77.3290 C.2   286  LYS286      0.2287
    109  O        106.8020   38.1250   77.4360 O.2   286  LYS286     -0.2864
    110  CB       109.5850   37.4760   76.5780 C.3   286  LYS286      0.0298
    111  CG       110.7280   37.1970   75.6170 C.3   286  LYS286      0.0038
    112  CD       111.9170   38.1020   75.9050 C.3   286  LYS286      0.0206
    113  CE       113.0730   37.8220   74.9530 C.3   286  LYS286      0.1093
    114  NZ       114.2390   38.7000   75.2440 N.3   286  LYS286     -0.1314
    115  N        107.7670   40.0090   79.6420 N.3   289  LEU289     -0.1231
    116  CA       107.6280   41.3270   79.0150 C.3   289  LEU289      0.1693
    117  C        106.1470   41.6860   79.0220 C.2   289  LEU289      0.2591
    118  O        105.7660   42.8330   79.2810 O.2   289  LEU289     -0.2718
    119  CB       108.1500   41.3070   77.5750 C.3   289  LEU289      0.0284
    120  CG       109.6620   41.1570   77.3920 C.3   289  LEU289      0.0019
    121  CD1      109.9950   41.1180   75.9170 C.3   289  LEU289      0.0001
    122  CD2      110.3840   42.3140   78.0730 C.3   289  LEU289      0.0001
    123  N        105.3190   40.6830   78.7430 N.am  290  LYS290     -0.1980
    124  CA       103.8700   40.8400   78.7250 C.3   290  LYS290      0.1596
    125  C        103.3720   41.1530   80.1310 C.2   290  LYS290      0.2287
    126  O        102.6530   42.1300   80.3420 O.2   290  LYS290     -0.2864
    127  CB       103.2140   39.5470   78.2320 C.3   290  LYS290      0.0298
    128  CG       101.7260   39.4240   78.5440 C.3   290  LYS290      0.0038
    129  CD       101.2610   37.9800   78.3770 C.3   290  LYS290      0.0206
    130  CE        99.8310   37.7730   78.8620 C.3   290  LYS290      0.1093
    131  NZ        98.8370   38.5320   78.0490 N.3   290  LYS290     -0.1314
    132  N        104.2810   44.6270   81.3750 N.3   293  LEU293     -0.1245
    133  CA       103.4000   45.6460   80.8090 C.3   293  LEU293      0.1561
    134  C        102.0470   45.7060   81.5160 C.2   293  LEU293      0.2260
    135  O        101.5380   46.7900   81.8020 O.2   293  LEU293     -0.2867
    136  CB       103.2010   45.4050   79.3070 C.3   293  LEU293      0.0270
    137  CG       104.4430   45.7130   78.4660 C.3   293  LEU293      0.0019
    138  CD1      104.1520   45.4420   77.0130 C.3   293  LEU293      0.0001
    139  CD2      104.8540   47.1680   78.6660 C.3   293  LEU293      0.0001
    140  N        102.4580   51.7630   77.6720 N.3   300  LEU300     -0.1245
    141  CA       101.6770   51.6450   76.4520 C.3   300  LEU300      0.1561
    142  C        100.7130   52.8190   76.3620 C.2   300  LEU300      0.2260
    143  O        100.4790   53.3610   75.2800 O.2   300  LEU300     -0.2867
    144  CB       100.8950   50.3260   76.4400 C.3   300  LEU300      0.0270
    145  CG       101.7200   49.0470   76.2970 C.3   300  LEU300      0.0019
    146  CD1      100.8080   47.8340   76.3300 C.3   300  LEU300      0.0001
    147  CD2      102.4940   49.0870   74.9950 C.3   300  LEU300      0.0001
    148  N        107.3020   52.8770   75.0490 N.3   305  ILE305     -0.1231
    149  CA       108.1560   51.8450   74.4750 C.3   305  ILE305      0.1692
    150  C        108.2400   51.8530   72.9470 C.2   305  ILE305      0.2591
    151  O        109.1480   51.2500   72.3740 O.2   305  ILE305     -0.2718
    152  CB       107.7750   50.4310   74.9780 C.3   305  ILE305      0.0266
    153  CG1      106.3130   50.1080   74.6680 C.3   305  ILE305      0.0019
    154  CG2      108.0380   50.3510   76.4780 C.3   305  ILE305      0.0020
    155  CD1      105.9540   48.6520   74.9240 C.3   305  ILE305      0.0001
    156  N        107.3100   52.5370   72.2860 N.am  306  GLN306     -0.1979
    157  CA       107.3440   52.6260   70.8250 C.3   306  GLN306      0.1601
    158  C        107.9320   53.9710   70.3780 C.2   306  GLN306      0.2287
    159  O        107.9570   54.2910   69.1840 O.2   306  GLN306     -0.2864
    160  CB       105.9320   52.4520   70.2380 C.3   306  GLN306      0.0394
    161  CG       104.7900   53.0700   71.0660 C.3   306  GLN306      0.0908
    162  CD       104.2070   52.1040   72.1290 C.2   306  GLN306      0.2608
    163  OE1      104.3220   52.3440   73.3480 O.2   306  GLN306     -0.2717
    164  NE2      103.5710   51.0120   71.6630 N.am  306  GLN306     -0.0878
@<TRIPOS>BOND
     1    75    74    2
     2    74    73    1
     3    73    72    1
     4    73    76    1
     5    83    82    2
     6    76    77    1
     7    78    77   ar
     8    80    81    1
     9    82    81    1
    10    77    79   ar
    11    84    81    1
    12    84    85    1
    13    86    85    2
    14    85    87   am
    15    56    55    1
    16    56    57    1
    17    55    54    1
    18    63    62    1
    19    53    54    1
    20    53    50    1
    21    52    51    2
    22    62    59    1
    23    62    64    1
    24    30    28    1
    25    28    27    1
    26    59    58    1
    27    59    60    1
    28    51    58   am
    29    51    50    1
    30    50    49    1
    31    61    60    2
    32    23    24    1
    33    60    65   am
    34    24    27    1
    35    24    25    1
    36    27    29    1
    37    49    47   am
    38    44    43    1
    39    65    66    1
    40    25    31   am
    41    25    26    2
    42    47    48    2
    43    47    46    1
    44    31    32    1
    45    67    68    2
    46    67    66    1
    47    43    40    1
    48    98    96    1
    49    66    69    1
    50    39    40    1
    51    39    33   am
    52    37    36   ar
    53   159   158    2
    54    45    46    1
    55    45    41   am
    56    95    96    2
    57    95    94    1
    58    32    33    1
    59    32    35    1
    60    88    89    1
    61    40    41    1
    62    96    97    1
    63    41    42    2
    64    93    94    1
    65    93    92    1
    66    33    34    2
    67    69    70    1
    68    69    71    1
    69    36    35    1
    70    36    38   ar
    71    89    92    1
    72    89    90    1
    73   160   157    1
    74   160   161    1
    75   158   157    1
    76   105   104    1
    77   105    99    1
    78   104   103    1
    79   157   156    1
    80   161   162    1
    81    22    20    1
    82    90    99   am
    83    90    91    2
    84    99   100    1
    85   164   162   am
    86    20    21    1
    87    20    19    1
    88   162   163    2
    89   156   150   am
    90   103   100    1
    91   151   150    2
    92   100   101    1
    93    18    17    2
    94   150   149    1
    95    17    16    1
    96    19    16    1
    97   101   102    2
    98   101   106   am
    99    16    15    1
   100   149   152    1
   101   149   148    1
   102    13    14   ar
   103    13    11   ar
   104   153   155    1
   105   153   152    1
   106    14    12   ar
   107   113   114    1
   108   113   112    1
   109   106   107    1
   110   152   154    1
   111   147   145    1
   112   143   142    2
   113   111   112    1
   114   111   110    1
   115    11     8   ar
   116    12    10   ar
   117   121   120    1
   118   107   110    1
   119   107   108    1
   120   145   146    1
   121   145   144    1
   122   142   141    1
   123   144   141    1
   124   141   140    1
   125   138   137    1
   126     8    10   ar
   127     8     6   ar
   128    10     9   ar
   129     4     3    2
   130   108   109    2
   131   120   119    1
   132   120   122    1
   133   119   116    1
   134     3     2    1
   135   131   130    1
   136   127   128    1
   137   127   124    1
   138     9     7   ar
   139   129   128    1
   140   129   130    1
   141     6     5    1
   142     6     7   ar
   143   137   139    1
   144   137   136    1
   145   124   123    1
   146   124   125    1
   147   123   117   am
   148     5     2    1
   149   116   117    1
   150   116   115    1
   151   117   118    2
   152     2     1    1
   153   136   133    1
   154   125   126    2
   155   133   132    1
   156   133   134    1
   157   134   135    2
