@<TRIPOS>MOLECULE
tmp/1svuA00.pdb
 174 169 0 0 0
SMALL
GASTEIGER

@<TRIPOS>ATOM
      1  N         14.4140   -7.9960   11.2510 N.3    18  PHE18      -0.1227
      2  CA        15.6570   -7.9490   12.0080 C.3    18  PHE18       0.1736
      3  C         15.9050   -6.5010   12.4300 C.2    18  PHE18       0.2595
      4  O         17.0500   -6.0650   12.5800 O.2    18  PHE18      -0.2718
      5  CB        16.8070   -8.4400   11.1310 C.3    18  PHE18       0.0547
      6  CG        16.6980   -9.8900   10.7380 C.ar   18  PHE18      -0.0202
      7  CD1       17.2530  -10.3400    9.5410 C.ar   18  PHE18      -0.0042
      8  CD2       16.0960  -10.8190   11.5920 C.ar   18  PHE18      -0.0042
      9  CE1       17.2210  -11.6920    9.2020 C.ar   18  PHE18      -0.0003
     10  CE2       16.0570  -12.1820   11.2610 C.ar   18  PHE18      -0.0003
     11  CZ        16.6220  -12.6180   10.0670 C.ar   18  PHE18      -0.0000
     12  N         14.8000   -5.7830   12.6150 N.am   19  ALA19      -0.1966
     13  CA        14.7640   -4.3700   12.9980 C.3    19  ALA19       0.1728
     14  C         16.0770   -3.6940   13.3960 C.2    19  ALA19       0.2617
     15  O         16.5710   -2.8110   12.6920 O.2    19  ALA19      -0.2715
     16  CB        13.7280   -4.1770   14.1060 C.3    19  ALA19       0.0334
     17  N         16.6350   -4.1030   14.5290 N.am   20  GLY20      -0.1940
     18  CA        17.8630   -3.4960   14.9970 C.3    20  GLY20       0.2014
     19  C         17.5640   -2.1820   15.6970 C.2    20  GLY20       0.2638
     20  O         17.0680   -2.1600   16.8260 O.2    20  GLY20      -0.2714
     21  N         17.8730   -1.0800   15.0210 N.am   21  LEU21      -0.1977
     22  CA        17.6420    0.2560   15.5570 C.3    21  LEU21       0.1596
     23  C         16.8190    0.9890   14.5170 C.2    21  LEU21       0.2287
     24  O         16.5950    2.1900   14.6240 O.2    21  LEU21      -0.2864
     25  CB        18.9680    1.0030   15.7580 C.3    21  LEU21       0.0297
     26  CG        19.8110    0.8350   17.0320 C.3    21  LEU21       0.0022
     27  CD1       21.0880    1.6590   16.9180 C.3    21  LEU21       0.0001
     28  CD2       19.0210    1.2810   18.2400 C.3    21  LEU21       0.0001
     29  N         17.6580    1.2470   11.2220 N.3    23  GLY23      -0.1210
     30  CA        18.4610    1.9360   10.2330 C.3    23  GLY23       0.1956
     31  C         17.6180    2.1050    8.9850 C.2    23  GLY23       0.2611
     32  O         17.4370    3.2120    8.4870 O.2    23  GLY23      -0.2717
     33  N         17.0730    0.9920    8.5060 N.am   24  PHE24      -0.1976
     34  CA        16.2360    0.9700    7.3090 C.3    24  PHE24       0.1639
     35  C         14.9920    1.8560    7.4240 C.2    24  PHE24       0.2290
     36  O         14.6590    2.5820    6.4850 O.2    24  PHE24      -0.2864
     37  CB        15.7880   -0.4650    6.9940 C.3    24  PHE24       0.0560
     38  CG        16.8950   -1.3710    6.5200 C.ar   24  PHE24      -0.0200
     39  CD1       17.2550   -2.4940    7.2580 C.ar   24  PHE24      -0.0042
     40  CD2       17.5560   -1.1210    5.3240 C.ar   24  PHE24      -0.0042
     41  CE1       18.2510   -3.3460    6.8050 C.ar   24  PHE24      -0.0003
     42  CE2       18.5520   -1.9710    4.8680 C.ar   24  PHE24      -0.0003
     43  CZ        18.8980   -3.0810    5.6070 C.ar   24  PHE24      -0.0000
     44  N         10.6090   -6.7560   13.4980 N.3    39  ASN39      -0.1225
     45  CA        10.7640   -7.8310   14.4530 C.3    39  ASN39       0.1785
     46  C         12.2110   -7.7850   14.8870 C.2    39  ASN39       0.2597
     47  O         13.0920   -7.4450   14.0920 O.2    39  ASN39      -0.2718
     48  CB        10.3860   -9.1770   13.8180 C.3    39  ASN39       0.1169
     49  CG        11.5510  -10.1290   13.7160 C.2    39  ASN39       0.2627
     50  OD1       12.4920   -9.9020   12.9490 O.2    39  ASN39      -0.2716
     51  ND2       11.4950  -11.2120   14.4830 N.am   39  ASN39      -0.0877
     52  N         12.4410   -8.0890   16.1610 N.am   40  GLU40      -0.1965
     53  CA        13.7830   -8.0730   16.7490 C.3    40  GLU40       0.1733
     54  C         13.6650   -8.6100   18.1770 C.2    40  GLU40       0.2616
     55  O         12.9190   -8.0440   18.9830 O.2    40  GLU40      -0.2715
     56  CB        14.3130   -6.6350   16.7610 C.3    40  GLU40       0.0429
     57  CG        15.6340   -6.4470   17.4810 C.3    40  GLU40       0.1163
     58  CD        16.7900   -7.0960   16.7550 C.2    40  GLU40       0.3649
     59  OE1       16.8990   -6.9200   15.5210 O.co2  40  GLU40      -0.2457
     60  OE2       17.5910   -7.7830   17.4250 O.co2  40  GLU40      -0.2457
     61  N         14.3940   -9.6800   18.5010 N.am   41  TRP41      -0.1960
     62  CA        14.2810  -10.2620   19.8430 C.3    41  TRP41       0.1771
     63  C         15.1110   -9.6290   20.9300 C.2    41  TRP41       0.2619
     64  O         14.7900   -9.7490   22.1090 O.2    41  TRP41      -0.2715
     65  CB        14.5670  -11.7650   19.8260 C.3    41  TRP41       0.0590
     66  CG        15.9060  -12.1620   19.3080 C.ar   41  TRP41       0.0006
     67  CD1       16.8780  -11.3430   18.7940 C.ar   41  TRP41       0.0946
     68  CD2       16.4010  -13.5000   19.1900 C.ar   41  TRP41       0.0152
     69  NE1       17.9490  -12.0980   18.3590 N.ar   41  TRP41      -0.2442
     70  CE2       17.6780  -13.4230   18.5890 C.ar   41  TRP41       0.0810
     71  CE3       15.8860  -14.7570   19.5300 C.ar   41  TRP41       0.0012
     72  CZ2       18.4470  -14.5600   18.3230 C.ar   41  TRP41       0.0191
     73  CZ3       16.6470  -15.8830   19.2660 C.ar   41  TRP41       0.0001
     74  CH2       17.9140  -15.7780   18.6670 C.ar   41  TRP41       0.0015
     75  N         16.1810   -8.9570   20.5470 N.am   42  ASP42      -0.1971
     76  CA        17.0130   -8.3280   21.5420 C.3    42  ASP42       0.1709
     77  C         16.2380   -7.3160   22.3750 C.2    42  ASP42       0.2293
     78  O         15.7570   -6.3070   21.8610 O.2    42  ASP42      -0.2864
     79  CB        18.1930   -7.6500   20.8850 C.3    42  ASP42       0.1436
     80  CG        19.2300   -7.2570   21.8800 C.2    42  ASP42       0.3671
     81  OD1       20.0160   -8.1450   22.2740 O.co2  42  ASP42      -0.2456
     82  OD2       19.2470   -6.0720   22.2770 O.co2  42  ASP42      -0.2456
     83  N         17.2310   -3.9510   22.2040 N.3    45  ALA45      -0.1245
     84  CA        17.0320   -3.5400   20.8220 C.3    45  ALA45       0.1562
     85  C         15.5830   -3.1090   20.7900 C.2    45  ALA45       0.2260
     86  O         15.2630   -1.9820   20.4040 O.2    45  ALA45      -0.2867
     87  CB        17.2470   -4.7050   19.8800 C.3    45  ALA45       0.0290
     88  N         11.1520  -12.9390   18.0970 N.3    60  ASP60      -0.1225
     89  CA        11.8590  -13.9150   17.2610 C.3    60  ASP60       0.1805
     90  C         11.1560  -14.3700   15.9810 C.2    60  ASP60       0.2598
     91  O         10.1790  -15.1250   16.0160 O.2    60  ASP60      -0.2718
     92  CB        12.2200  -15.1520   18.0900 C.3    60  ASP60       0.1424
     93  CG        12.9380  -16.2180   17.2660 C.2    60  ASP60       0.3668
     94  OD1       12.3020  -17.2320   16.9040 O.co2  60  ASP60      -0.2456
     95  OD2       14.1390  -16.0380   16.9780 O.co2  60  ASP60      -0.2456
     96  N         11.6880  -13.9220   14.8490 N.am   61  ILE61      -0.1966
     97  CA        11.1360  -14.2550   13.5410 C.3    61  ILE61       0.1727
     98  C         10.9480  -15.7610   13.3040 C.2    61  ILE61       0.2616
     99  O          9.9650  -16.1800   12.6930 O.2    61  ILE61      -0.2715
    100  CB        12.0300  -13.6740   12.4120 C.3    61  ILE61       0.0290
    101  CG1       11.2240  -13.5590   11.1250 C.3    61  ILE61       0.0022
    102  CG2       13.2500  -14.5630   12.1790 C.3    61  ILE61       0.0023
    103  CD1       10.1660  -12.4920   11.1790 C.3    61  ILE61       0.0001
    104  N         11.8960  -16.5580   13.7940 N.am   62  THR62      -0.1951
    105  CA        11.8960  -18.0140   13.6380 C.3    62  THR62       0.1897
    106  C         10.5920  -18.7160   13.9140 C.2    62  THR62       0.2313
    107  O         10.3270  -19.7840   13.3690 O.2    62  THR62      -0.2863
    108  CB        12.9170  -18.6560   14.5600 C.3    62  THR62       0.1794
    109  OG1       13.9800  -17.7260   14.7980 O.3    62  THR62      -0.2208
    110  CG2       13.4560  -19.9350   13.9470 C.3    62  THR62       0.0378
    111  N         19.0490   -6.7230    7.4070 N.3    78  GLY78      -0.1210
    112  CA        20.5000   -6.7200    7.3960 C.3    78  GLY78       0.1956
    113  C         20.9110   -7.6930    8.4810 C.2    78  GLY78       0.2611
    114  O         21.2220   -7.2970    9.6070 O.2    78  GLY78      -0.2717
    115  N         20.8960   -8.9770    8.1340 N.am   79  PHE79      -0.1976
    116  CA        21.2200  -10.0680    9.0560 C.3    79  PHE79       0.1639
    117  C         22.7140  -10.2780    9.3030 C.2    79  PHE79       0.2290
    118  O         23.1400  -11.3850    9.6650 O.2    79  PHE79      -0.2864
    119  CB        20.6250  -11.3600    8.5100 C.3    79  PHE79       0.0560
    120  CG        20.7920  -11.5110    7.0210 C.ar   79  PHE79      -0.0200
    121  CD1       21.7600  -12.3630    6.5000 C.ar   79  PHE79      -0.0042
    122  CD2       19.9860  -10.7950    6.1400 C.ar   79  PHE79      -0.0042
    123  CE1       21.9270  -12.5040    5.1200 C.ar   79  PHE79      -0.0003
    124  CE2       20.1460  -10.9270    4.7580 C.ar   79  PHE79      -0.0003
    125  CZ        21.1200  -11.7860    4.2500 C.ar   79  PHE79      -0.0000
    126  N         18.6500  -19.0440    8.8870 N.3    80  LEU80      -0.1245
    127  CA        17.9320  -17.8660    9.3750 C.3    80  LEU80       0.1561
    128  C         17.4450  -16.9890    8.2140 C.2    80  LEU80       0.2260
    129  O         16.2670  -16.6110    8.1500 O.2    80  LEU80      -0.2867
    130  CB        18.8310  -17.0460   10.3120 C.3    80  LEU80       0.0270
    131  CG        18.1970  -15.8750   11.0850 C.3    80  LEU80       0.0019
    132  CD1       17.6660  -16.3450   12.4430 C.3    80  LEU80       0.0001
    133  CD2       19.2360  -14.7780   11.2770 C.3    80  LEU80       0.0001
    134  N         30.0390   -2.6280    4.0450 N.3   145  ARG145     -0.1245
    135  CA        28.9060   -3.5330    4.1250 C.3   145  ARG145      0.1563
    136  C         28.4300   -3.8770    2.7160 C.2   145  ARG145      0.2260
    137  O         28.6940   -3.1370    1.7630 O.2   145  ARG145     -0.2867
    138  CB        27.7630   -2.8800    4.9130 C.3   145  ARG145      0.0307
    139  CG        27.9570   -2.8730    6.4210 C.3   145  ARG145      0.0489
    140  CD        28.0360   -4.2870    6.9710 C.3   145  ARG145      0.2205
    141  NE        27.7100   -4.3520    8.3940 N.pl3 145  ARG145     -0.0865
    142  CZ        26.7270   -5.0880    8.9110 C.cat 145  ARG145      0.5346
    143  NH1       25.9550   -5.8320    8.1240 N.pl3 145  ARG145      0.1354
    144  NH2       26.5200   -5.0990   10.2240 N.pl3 145  ARG145      0.1354
    145  N         24.8100   -2.0380   19.7620 N.3   281  GLN281     -0.1245
    146  CA        23.7480   -1.7440   18.8260 C.3   281  GLN281      0.1566
    147  C         24.3370   -1.0870   17.6040 C.2   281  GLN281      0.2260
    148  O         24.1840   -1.5800   16.4880 O.2   281  GLN281     -0.2867
    149  CB        22.7200   -0.8340   19.4910 C.3   281  GLN281      0.0367
    150  CG        21.8410   -1.5970   20.4610 C.3   281  GLN281      0.0905
    151  CD        20.9380   -0.7130   21.2890 C.2   281  GLN281      0.2608
    152  OE1       21.0910    0.5210   21.3230 O.2   281  GLN281     -0.2717
    153  NE2       19.9820   -1.3430   21.9730 N.am  281  GLN281     -0.0878
    154  N         26.3900   -3.0280   15.4070 N.3   284  ASN284     -0.1225
    155  CA        25.5900   -3.8880   14.5370 C.3   284  ASN284      0.1785
    156  C         24.7100   -3.2140   13.4860 C.2   284  ASN284      0.2598
    157  O         24.3870   -3.8210   12.4610 O.2   284  ASN284     -0.2718
    158  CB        24.6960   -4.7660   15.3930 C.3   284  ASN284      0.1169
    159  CG        25.4000   -5.9820   15.8810 C.2   284  ASN284      0.2627
    160  OD1       26.5510   -6.2140   15.5300 O.2   284  ASN284     -0.2716
    161  ND2       24.7190   -6.7800   16.6940 N.am  284  ASN284     -0.0877
    162  N         24.3100   -1.9740   13.7500 N.am  285  SER285     -0.1938
    163  CA        23.4370   -1.2490   12.8380 C.3   285  SER285      0.2055
    164  C         24.0800   -0.8410   11.5320 C.2   285  SER285      0.2642
    165  O         25.2380   -1.1480   11.2600 O.2   285  SER285     -0.2714
    166  CB        22.8540   -0.0120   13.5180 C.3   285  SER285      0.2130
    167  OG        21.5960    0.3170   12.9570 O.3   285  SER285     -0.2179
    168  N         23.3100   -0.1160   10.7320 N.am  286  VAL286     -0.1977
    169  CA        23.7690    0.3100    9.4260 C.3   286  VAL286      0.1596
    170  C         23.9340    1.8140    9.2710 C.2   286  VAL286      0.2287
    171  O         23.3890    2.6150   10.0380 O.2   286  VAL286     -0.2864
    172  CB        22.8080   -0.2270    8.3340 C.3   286  VAL286      0.0276
    173  CG1       21.3730    0.0690    8.7300 C.3   286  VAL286      0.0022
    174  CG2       23.1470    0.3720    6.9720 C.3   286  VAL286      0.0022
@<TRIPOS>BOND
     1   137   136    2
     2   136   135    1
     3   134   135    1
     4   135   138    1
     5   125   124   ar
     6   125   123   ar
     7   124   122   ar
     8    42    40   ar
     9    42    43   ar
    10   138   139    1
    11   123   121   ar
    12    40    38   ar
    13    43    41   ar
    14   122   120   ar
    15   139   140    1
    16    36    35    2
    17   121   120   ar
    18    38    37    1
    19    38    39   ar
    20    41    39   ar
    21   140   141    1
    22   174   172    1
    23    37    34    1
    24   120   119    1
    25    34    35    1
    26    34    33    1
    27   112   111    1
    28   112   113    1
    29   143   142    1
    30   115   113   am
    31   115   116    1
    32   129   128    2
    33   128   127    1
    34   172   173    1
    35   172   169    1
    36   141   142    2
    37   113   114    2
    38    32    31    2
    39    33    31   am
    40   119   116    1
    41   126   127    1
    42   142   144    1
    43    31    30    1
    44   116   117    1
    45     9     7   ar
    46     9    11   ar
    47   170   169    1
    48   170   171    2
    49   117   118    2
    50   127   130    1
    51   169   168    1
    52     7     6   ar
    53    11    10   ar
    54    30    29    1
    55   130   131    1
    56   168   164   am
    57     6     5    1
    58     6     8   ar
    59   131   133    1
    60   131   132    1
    61   101   103    1
    62   101   100    1
    63     5     2    1
    64     1     2    1
    65   165   164    2
    66    10     8   ar
    67   164   163    1
    68     2     3    1
    69   102   100    1
    70   100    97    1
    71     3     4    2
    72     3    12   am
    73   157   156    2
    74    12    13    1
    75    15    14    2
    76    99    98    2
    77   163   166    1
    78   163   162    1
    79    50    49    2
    80   167   166    1
    81    13    14    1
    82    13    16    1
    83    98    97    1
    84    98   104   am
    85   107   106    2
    86    14    17   am
    87   156   162   am
    88   156   155    1
    89    44    45    1
    90    97    96    1
    91   105   104    1
    92   105   106    1
    93   105   108    1
    94    49    48    1
    95    49    51   am
    96    48    45    1
    97   110   108    1
    98    47    46    2
    99    45    46    1
   100    23    24    2
   101    23    22    1
   102    17    18    1
   103   155   158    1
   104   155   154    1
   105   108   109    1
   106    96    90   am
   107    46    52   am
   108    18    19    1
   109    21    22    1
   110    21    19   am
   111   158   159    1
   112    59    58   ar
   113   160   159    2
   114    22    25    1
   115    19    20    2
   116    25    26    1
   117   159   161   am
   118    90    91    2
   119    90    89    1
   120    52    53    1
   121   148   147    2
   122    53    56    1
   123    53    54    1
   124    58    60   ar
   125    58    57    1
   126    56    57    1
   127    94    93   ar
   128    27    26    1
   129    95    93   ar
   130    26    28    1
   131    89    92    1
   132    89    88    1
   133    93    92    1
   134   147   146    1
   135    54    61   am
   136    54    55    2
   137    72    70   ar
   138    72    74   ar
   139    69    70   ar
   140    69    67   ar
   141    61    62    1
   142    70    68   ar
   143    74    73   ar
   144    67    66   ar
   145   146   149    1
   146   146   145    1
   147    68    66   ar
   148    68    71   ar
   149    73    71   ar
   150    66    65    1
   151   149   150    1
   152    65    62    1
   153    62    63    1
   154    87    84    1
   155    86    85    2
   156   150   151    1
   157    75    63   am
   158    75    76    1
   159    85    84    1
   160    84    83    1
   161    79    76    1
   162    79    80    1
   163    63    64    2
   164   151   152    2
   165   151   153   am
   166    76    77    1
   167    78    77    2
   168    80    81   ar
   169    80    82   ar
