@<TRIPOS>MOLECULE
tmp/1svwA00.pdb
 178 174 0 0 0
SMALL
GASTEIGER

@<TRIPOS>ATOM
      1  N         12.1190   54.0140   45.0500 N.3    30  SER30      -0.1202
      2  CA        12.5850   55.3950   45.1130 C.3    30  SER30       0.2020
      3  C         11.5450   56.2870   44.4140 C.2    30  SER30       0.2619
      4  O         11.0320   55.9240   43.3550 O.2    30  SER30      -0.2717
      5  CB        13.9580   55.4720   44.4430 C.3    30  SER30       0.2103
      6  OG        14.7060   54.2860   44.7540 O.3    30  SER30      -0.2182
      7  N         11.2130   57.4180   45.0450 N.am   31  ASN31      -0.1960
      8  CA        10.2390   58.3890   44.5210 C.3    31  ASN31       0.1819
      9  C          8.7940   58.1250   44.9870 C.2    31  ASN31       0.2621
     10  O          7.9230   58.9820   44.8600 O.2    31  ASN31      -0.2715
     11  CB        10.3100   58.4200   42.9840 C.3    31  ASN31       0.1195
     12  CG         9.3750   59.4350   42.3730 C.2    31  ASN31       0.2630
     13  OD1        9.4740   60.6220   42.6520 O.2    31  ASN31      -0.2716
     14  ND2        8.4610   58.9690   41.5270 N.am   31  ASN31      -0.0877
     15  N          8.5640   56.9360   45.5350 N.am   32  VAL32      -0.1963
     16  CA         7.2650   56.5050   46.0370 C.3    32  VAL32       0.1727
     17  C          6.5500   57.4890   46.9690 C.2    32  VAL32       0.2617
     18  O          5.3120   57.4540   47.0980 O.2    32  VAL32      -0.2715
     19  CB         7.4070   55.1660   46.8080 C.3    32  VAL32       0.0290
     20  CG1        8.3870   55.3400   47.9690 C.3    32  VAL32       0.0023
     21  CG2        6.0430   54.7040   47.3450 C.3    32  VAL32       0.0023
     22  N          7.3320   58.3390   47.6290 N.am   33  GLY33      -0.1940
     23  CA         6.7960   59.3100   48.5660 C.3    33  GLY33       0.2014
     24  C          7.0050   58.9250   50.0320 C.2    33  GLY33       0.2639
     25  O          6.1570   59.2350   50.8790 O.2    33  GLY33      -0.2714
     26  N          8.1080   58.2410   50.3440 N.am   34  LYS34      -0.1963
     27  CA         8.4090   57.8550   51.7280 C.3    34  LYS34       0.1728
     28  C          8.7020   59.1290   52.4960 C.2    34  LYS34       0.2617
     29  O          8.2130   59.3400   53.5950 O.2    34  LYS34      -0.2715
     30  CB         9.6730   56.9980   51.8180 C.3    34  LYS34       0.0311
     31  CG         9.5570   55.5220   51.4810 C.3    34  LYS34       0.0038
     32  CD        10.9500   54.9140   51.4050 C.3    34  LYS34       0.0206
     33  CE        11.9480   55.8960   50.8140 C.3    34  LYS34       0.1093
     34  NZ        11.7920   56.0290   49.3400 N.3    34  LYS34      -0.1314
     35  N          9.5450   59.9650   51.9130 N.am   35  SER35      -0.1936
     36  CA         9.8840   61.2280   52.5570 C.3    35  SER35       0.2055
     37  C          8.5290   61.9650   52.7880 C.2    35  SER35       0.2643
     38  O          8.3040   62.6020   53.8320 O.2    35  SER35      -0.2714
     39  CB        10.8760   62.0630   51.6670 C.3    35  SER35       0.2130
     40  OG        12.0640   61.3380   51.2590 O.3    35  SER35      -0.2179
     41  N          7.6050   61.8310   51.8350 N.am   36  SER36      -0.1949
     42  CA         6.2920   62.4790   51.9540 C.3    36  SER36       0.1924
     43  C          5.4340   61.9260   53.0750 C.2    36  SER36       0.2314
     44  O          4.9460   62.6850   53.9180 O.2    36  SER36      -0.2863
     45  CB         5.5420   62.4230   50.6280 C.3    36  SER36       0.2116
     46  OG         6.0020   63.4770   49.7870 O.3    36  SER36      -0.2180
     47  N         12.9460   66.4220   53.4680 N.3    49  ARG49      -0.1231
     48  CA        12.8550   66.9870   52.1180 C.3    49  ARG49       0.1694
     49  C         12.2700   66.0650   51.0650 C.2    49  ARG49       0.2593
     50  O         12.6070   64.8780   50.9970 O.2    49  ARG49      -0.2718
     51  CB        14.2250   67.4490   51.6260 C.3    49  ARG49       0.0321
     52  CG        14.8890   68.4660   52.5100 C.3    49  ARG49       0.0489
     53  CD        13.9940   69.6410   52.8190 C.3    49  ARG49       0.2205
     54  NE        14.6970   70.5770   53.6770 N.pl3  49  ARG49      -0.0865
     55  CZ        14.1150   71.4640   54.4770 C.cat  49  ARG49       0.5346
     56  NH1       14.8670   72.2720   55.2230 N.pl3  49  ARG49       0.1354
     57  NH2       12.7900   71.5480   54.5350 N.pl3  49  ARG49       0.1354
     58  N         11.3810   66.6130   50.2470 N.am   50  THR50      -0.1939
     59  CA        10.8010   65.8490   49.1520 C.3    50  THR50       0.2028
     60  C         11.4260   66.4520   47.9020 C.2    50  THR50       0.2643
     61  O         12.0800   67.4890   47.9860 O.2    50  THR50      -0.2714
     62  CB         9.2760   65.9910   49.0830 C.3    50  THR50       0.1808
     63  OG1        8.9180   67.3640   49.2730 O.3    50  THR50      -0.2208
     64  CG2        8.6120   65.1140   50.1340 C.3    50  THR50       0.0379
     65  N         11.2480   65.8190   46.7510 N.am   51  SER51      -0.1935
     66  CA        11.8380   66.3630   45.5420 C.3    51  SER51       0.2055
     67  C         11.0570   66.0360   44.2930 C.2    51  SER51       0.2644
     68  O         10.5140   64.9440   44.1550 O.2    51  SER51      -0.2714
     69  CB        13.2710   65.8670   45.3860 C.3    51  SER51       0.2130
     70  OG        13.8630   66.3930   44.2100 O.3    51  SER51      -0.2179
     71  N         11.0230   67.0120   43.3910 N.am   52  SER52      -0.1935
     72  CA        10.3270   66.9150   42.1140 C.3    52  SER52       0.2055
     73  C         10.0030   65.4760   41.7450 C.2    52  SER52       0.2643
     74  O          8.8410   65.1660   41.4640 O.2    52  SER52      -0.2714
     75  CB        11.1570   67.5790   40.9950 C.3    52  SER52       0.2130
     76  OG        12.4950   67.0830   40.9270 O.3    52  SER52      -0.2179
     77  N         11.0370   64.6240   41.7530 N.am   53  LYS53      -0.1963
     78  CA        10.9460   63.1890   41.4500 C.3    53  LYS53       0.1713
     79  C         12.3040   62.5010   41.2130 C.2    53  LYS53       0.2458
     80  O         12.4820   61.8160   40.2130 O.2    53  LYS53      -0.2730
     81  CB        10.0150   62.9120   40.2350 C.3    53  LYS53       0.0311
     82  CG         8.4820   62.8700   40.5640 C.3    53  LYS53       0.0038
     83  CD         7.7120   61.7840   39.8040 C.3    53  LYS53       0.0206
     84  CE         6.3810   61.4180   40.4860 C.3    53  LYS53       0.1093
     85  NZ         5.3660   62.5370   40.5470 N.3    53  LYS53      -0.1314
     86  N         13.2760   62.6660   42.1220 N.am   54  PRO54      -0.2716
     87  CA        14.5510   61.9900   41.8630 C.3    54  PRO54       0.1536
     88  C         14.8560   60.9250   42.9100 C.2    54  PRO54       0.2599
     89  O         14.1070   59.9700   43.0740 O.2    54  PRO54      -0.2715
     90  CB        15.5420   63.1360   41.9170 C.3    54  PRO54       0.0310
     91  CG        15.0180   63.9240   43.0780 C.3    54  PRO54       0.0237
     92  CD        13.4930   63.8680   42.9450 C.3    54  PRO54       0.0939
     93  N         15.9750   61.1070   43.6010 N.am   55  GLY55      -0.1941
     94  CA        16.3950   60.2060   44.6630 C.3    55  GLY55       0.2014
     95  C         16.9780   61.0550   45.7860 C.2    55  GLY55       0.2639
     96  O         18.0600   60.7800   46.3220 O.2    55  GLY55      -0.2714
     97  N         16.2300   62.0930   46.1510 N.am   56  LYS56      -0.1963
     98  CA        16.6470   63.0570   47.1650 C.3    56  LYS56       0.1728
     99  C         17.0550   62.5560   48.5540 C.2    56  LYS56       0.2616
    100  O         18.1130   62.9640   49.0320 O.2    56  LYS56      -0.2715
    101  CB        15.5820   64.1800   47.2860 C.3    56  LYS56       0.0311
    102  CG        16.0450   65.3840   48.1560 C.3    56  LYS56       0.0038
    103  CD        15.3100   66.7140   47.8800 C.3    56  LYS56       0.0206
    104  CE        15.8550   67.4370   46.6460 C.3    56  LYS56       0.1093
    105  NZ        15.3100   68.8220   46.5110 N.3    56  LYS56      -0.1314
    106  N         16.2580   61.7240   49.2300 N.am   57  THR57      -0.1951
    107  CA        16.7030   61.2810   50.5580 C.3    57  THR57       0.1897
    108  C         17.8670   60.3300   50.3700 C.2    57  THR57       0.2313
    109  O         17.7890   59.4000   49.5670 O.2    57  THR57      -0.2863
    110  CB        15.6010   60.6160   51.3870 C.3    57  THR57       0.1794
    111  OG1       14.8610   61.6200   52.0830 O.3    57  THR57      -0.2208
    112  CG2       16.2050   59.7180   52.4190 C.3    57  THR57       0.0378
    113  N         14.6410   56.7710   54.8900 N.3    74  VAL74      -0.1231
    114  CA        15.5930   55.9710   54.1490 C.3    74  VAL74       0.1678
    115  C         15.5350   56.1460   52.6100 C.2    74  VAL74       0.2434
    116  O         14.4740   56.4530   52.0270 O.2    74  VAL74      -0.2733
    117  CB        15.3080   54.4620   54.4880 C.3    74  VAL74       0.0265
    118  CG1       16.2410   53.5420   53.7320 C.3    74  VAL74       0.0020
    119  CG2       15.3860   54.2410   55.9870 C.3    74  VAL74       0.0020
    120  N         16.6980   55.9940   51.9430 N.am   75  PRO75      -0.2718
    121  CA        16.8290   56.0910   50.4890 C.3    75  PRO75       0.1535
    122  C         16.0010   54.9490   49.8810 C.2    75  PRO75       0.2599
    123  O         15.7320   53.9540   50.5490 O.2    75  PRO75      -0.2715
    124  CB        18.3320   55.8930   50.2820 C.3    75  PRO75       0.0310
    125  CG        18.9050   56.6520   51.3990 C.3    75  PRO75       0.0237
    126  CD        18.0200   56.1960   52.5780 C.3    75  PRO75       0.0939
    127  N         15.5940   55.0850   48.6270 N.am   76  GLY76      -0.1955
    128  CA        14.7980   54.0290   48.0160 C.3    76  GLY76       0.1869
    129  C         15.6720   52.8200   47.7790 C.2    76  GLY76       0.2309
    130  O         16.8960   52.9590   47.7370 O.2    76  GLY76      -0.2863
    131  N          0.3610   53.8490   48.5790 N.3   137  THR137     -0.1203
    132  CA         0.3120   55.2940   48.4930 C.3   137  THR137      0.1994
    133  C         -0.1790   55.8630   47.1910 C.2   137  THR137      0.2617
    134  O         -0.5120   55.1340   46.2600 O.2   137  THR137     -0.2717
    135  CB         1.6560   55.9050   48.7440 C.3   137  THR137      0.1784
    136  OG1        1.4980   57.3260   48.8820 O.3   137  THR137     -0.2211
    137  CG2        2.5960   55.5860   47.5890 C.3   137  THR137      0.0376
    138  N         -0.2010   57.1890   47.1410 N.am  138  LYS138     -0.1979
    139  CA        -0.6560   57.9300   45.9810 C.3   138  LYS138      0.1596
    140  C         -2.0700   57.4960   45.5260 C.2   138  LYS138      0.2287
    141  O         -2.3630   57.4680   44.3170 O.2   138  LYS138     -0.2864
    142  CB         0.3580   57.7630   44.8420 C.3   138  LYS138      0.0298
    143  CG         1.7170   58.2980   45.1580 C.3   138  LYS138      0.0038
    144  CD         2.6820   58.1900   43.9830 C.3   138  LYS138      0.0206
    145  CE         4.1210   58.6290   44.3330 C.3   138  LYS138      0.1093
    146  NZ         5.0420   58.3000   43.2030 N.3   138  LYS138     -0.1314
    147  N         -4.9220   58.9980   45.6630 N.3   140  ASP140     -0.1225
    148  CA        -5.4320   60.1590   44.9500 C.3   140  ASP140      0.1805
    149  C         -5.1540   60.2170   43.4400 C.2   140  ASP140      0.2597
    150  O         -5.6310   61.1330   42.7580 O.2   140  ASP140     -0.2718
    151  CB        -4.8320   61.4160   45.5790 C.3   140  ASP140      0.1424
    152  CG        -3.2890   61.3460   45.6940 C.2   140  ASP140      0.3668
    153  OD1       -2.7880   60.6870   46.6650 O.co2 140  ASP140     -0.2456
    154  OD2       -2.5960   61.9450   44.8110 O.co2 140  ASP140     -0.2456
    155  N         -4.3800   59.2800   42.9040 N.am  141  LYS141     -0.1979
    156  CA        -4.0750   59.3200   41.4760 C.3   141  LYS141      0.1596
    157  C         -4.6770   58.0790   40.8180 C.2   141  LYS141      0.2287
    158  O         -4.2860   57.6480   39.7000 O.2   141  LYS141     -0.2864
    159  CB        -2.5520   59.3860   41.2730 C.3   141  LYS141      0.0298
    160  CG        -1.8570   60.2760   42.3010 C.3   141  LYS141      0.0038
    161  CD        -0.3930   60.5340   41.9580 C.3   141  LYS141      0.0206
    162  CE        -0.2530   61.2920   40.6520 C.3   141  LYS141      0.1093
    163  NZ         1.0110   62.0870   40.6030 N.3   141  LYS141     -0.1314
    164  N         -0.5220   61.3010   50.1710 N.3   171  SER171     -0.1202
    165  CA         0.2140   62.3760   50.7980 C.3   171  SER171      0.2020
    166  C         -0.4080   63.6850   50.3280 C.2   171  SER171      0.2618
    167  O         -0.1030   64.7630   50.8290 O.2   171  SER171     -0.2717
    168  CB         1.7140   62.2960   50.4640 C.3   171  SER171      0.2103
    169  OG         2.4200   61.6940   51.5430 O.3   171  SER171     -0.2182
    170  N         -1.3040   63.5810   49.3590 N.am  172  GLU172     -0.1979
    171  CA        -1.9950   64.7500   48.8430 C.3   172  GLU172      0.1602
    172  C         -3.1760   65.0530   49.7530 C.2   172  GLU172      0.2287
    173  O         -3.1690   66.0010   50.5480 O.2   172  GLU172     -0.2864
    174  CB        -2.5270   64.4760   47.4410 C.3   172  GLU172      0.0415
    175  CG        -1.8040   65.2320   46.3480 C.3   172  GLU172      0.1163
    176  CD        -1.6650   66.7410   46.6400 C.2   172  GLU172      0.3649
    177  OE1       -2.7100   67.4120   46.9240 O.co2 172  GLU172     -0.2457
    178  OE2       -0.5000   67.2470   46.5690 O.co2 172  GLU172     -0.2457
@<TRIPOS>BOND
     1   158   157    2
     2    83    84    1
     3    83    82    1
     4    80    79    2
     5    81    82    1
     6    81    78    1
     7    84    85    1
     8   163   162    1
     9   162   161    1
    10   157   156    1
    11    76    75    1
    12    75    72    1
    13    79    78    1
    14    79    86   am
    15   159   156    1
    16   159   160    1
    17    78    77    1
    18    74    73    2
    19   156   155    1
    20    14    12   am
    21    73    77   am
    22    73    72    1
    23    87    90    1
    24    87    86    1
    25    87    88    1
    26    90    91    1
    27   161   160    1
    28    72    71    1
    29    86    92    1
    30    12    13    2
    31    12    11    1
    32   150   149    2
    33   155   149   am
    34    88    89    2
    35    88    93   am
    36    92    91    1
    37    11     8    1
    38   146   145    1
    39     4     3    2
    40    71    67   am
    41   149   148    1
    42    93    94    1
    43   144   145    1
    44   144   143    1
    45    68    67    2
    46    70    69    1
    47    67    66    1
    48   141   140    2
    49     3     7   am
    50     3     2    1
    51     5     6    1
    52     5     2    1
    53     8     9    1
    54     8     7    1
    55    94    95    1
    56   154   152   ar
    57   142   143    1
    58   142   139    1
    59    10     9    2
    60   148   151    1
    61   148   147    1
    62     9    15   am
    63     1     2    1
    64    69    66    1
    65   140   139    1
    66    15    16    1
    67    66    65    1
    68   151   152    1
    69   152   153   ar
    70    95    97   am
    71    95    96    2
    72   139   138    1
    73    16    19    1
    74    16    17    1
    75    97    98    1
    76   134   133    2
    77   175   176    1
    78   175   174    1
    79   105   104    1
    80   178   176   ar
    81   176   177   ar
    82   104   103    1
    83    65    60   am
    84    19    21    1
    85    19    20    1
    86    17    18    2
    87    17    22   am
    88   138   133   am
    89    98   101    1
    90    98    99    1
    91   133   132    1
    92   101   102    1
    93   174   171    1
    94   137   135    1
    95    22    23    1
    96   130   129    2
    97   129   128    1
    98   103   102    1
    99    60    61    2
   100    60    59    1
   101   128   127    1
   102   132   131    1
   103   132   135    1
   104    99   100    2
   105    99   106   am
   106    23    24    1
   107   127   122   am
   108   135   136    1
   109   171   170    1
   110   171   172    1
   111    62    59    1
   112    62    63    1
   113    62    64    1
   114    59    58    1
   115   106   107    1
   116    34    33    1
   117   170   166   am
   118   109   108    2
   119   172   173    2
   120    46    45    1
   121   122   121    1
   122   122   123    2
   123    24    26   am
   124    24    25    2
   125   164   165    1
   126    58    49   am
   127   124   121    1
   128   124   125    1
   129   166   165    1
   130   166   167    2
   131    26    27    1
   132   108   107    1
   133   168   165    1
   134   168   169    1
   135   121   120    1
   136   107   110    1
   137    45    42    1
   138    33    32    1
   139    50    49    2
   140    49    48    1
   141    40    39    1
   142   110   111    1
   143   110   112    1
   144   125   126    1
   145    32    31    1
   146    31    30    1
   147    51    48    1
   148    51    52    1
   149    39    36    1
   150    27    30    1
   151    27    28    1
   152    41    42    1
   153    41    37   am
   154    35    28   am
   155    35    36    1
   156   120   126    1
   157   120   115   am
   158    42    43    1
   159   116   115    2
   160    48    47    1
   161    28    29    2
   162    52    53    1
   163    36    37    1
   164   115   114    1
   165    37    38    2
   166    53    54    1
   167    43    44    2
   168    54    55    2
   169   118   117    1
   170   114   117    1
   171   114   113    1
   172    55    57    1
   173    55    56    1
   174   117   119    1
