@<TRIPOS>MOLECULE
tmp/1svzB00.pdb
 196 193 0 0 0
SMALL
GASTEIGER

@<TRIPOS>ATOM
      1  N        -26.9920  -36.4440    7.6180 N.3    31  HIS31      -0.1241
      2  CA       -26.1300  -36.5620    6.4530 C.3    31  HIS31       0.1621
      3  C        -26.3780  -37.8600    5.6770 C.2    31  HIS31       0.2264
      4  O        -26.7780  -38.8770    6.2500 O.2    31  HIS31      -0.2867
      5  CB       -24.6730  -36.4780    6.8990 C.3    31  HIS31       0.0745
      6  CG       -23.7030  -36.2840    5.7780 C.ar   31  HIS31       0.0817
      7  ND1      -23.2410  -37.3260    5.0030 N.ar   31  HIS31      -0.2268
      8  CD2      -23.0860  -35.1720    5.3190 C.ar   31  HIS31       0.1154
      9  CE1      -22.3750  -36.8640    4.1190 C.ar   31  HIS31       0.1986
     10  NE2      -22.2620  -35.5600    4.2890 N.ar   31  HIS31      -0.2212
     11  N        -24.6150  -40.0120    4.8450 N.3    33  ASN33      -0.1240
     12  CA       -23.9130  -41.1630    5.4080 C.3    33  ASN33       0.1653
     13  C        -24.6250  -41.6650    6.6630 C.2    33  ASN33       0.2266
     14  O        -24.2280  -42.6680    7.2680 O.2    33  ASN33      -0.2867
     15  CB       -22.4530  -40.8250    5.7340 C.3    33  ASN33       0.1155
     16  CG       -22.3190  -39.7430    6.7950 C.2    33  ASN33       0.2627
     17  OD1      -23.2180  -39.5380    7.6200 O.2    33  ASN33      -0.2716
     18  ND2      -21.1770  -39.0590    6.7880 N.am   33  ASN33      -0.0877
     19  N        -24.2800  -34.1430   11.9640 N.3    37  TYR37      -0.1241
     20  CA       -23.1720  -33.3110   12.4060 C.3    37  TYR37       0.1605
     21  C        -23.5720  -32.0290   13.1140 C.2    37  TYR37       0.2264
     22  O        -23.2650  -30.9330   12.6520 O.2    37  TYR37      -0.2867
     23  CB       -22.2660  -32.9920   11.2260 C.3    37  TYR37       0.0534
     24  CG       -21.6730  -34.2460   10.6220 C.ar   37  TYR37      -0.0201
     25  CD1      -20.7210  -34.9830   11.3220 C.ar   37  TYR37      -0.0009
     26  CD2      -22.0930  -34.7170    9.3760 C.ar   37  TYR37      -0.0009
     27  CE1      -20.2010  -36.1500   10.8050 C.ar   37  TYR37       0.0417
     28  CE2      -21.5690  -35.8950    8.8490 C.ar   37  TYR37       0.0417
     29  CZ       -20.6250  -36.6020    9.5710 C.ar   37  TYR37       0.1957
     30  OH       -20.0940  -37.7650    9.0640 O.3    37  TYR37      -0.2866
     31  N        -23.0300  -29.3220   10.2940 N.3    96  GLY96      -0.1210
     32  CA       -22.0450  -29.5300    9.2520 C.3    96  GLY96       0.1956
     33  C        -22.5110  -30.6400    8.3250 C.2    96  GLY96       0.2612
     34  O        -21.7700  -31.0760    7.4470 O.2    96  GLY96      -0.2717
     35  N        -23.7390  -31.1080    8.5440 N.am   97  SER97      -0.1952
     36  CA       -24.3390  -32.1560    7.7250 C.3    97  SER97       0.1924
     37  C        -24.5160  -31.7030    6.2820 C.2    97  SER97       0.2314
     38  O        -24.2660  -32.4580    5.3640 O.2    97  SER97      -0.2863
     39  CB       -25.7130  -32.5440    8.2710 C.3    97  SER97       0.2116
     40  OG       -25.6190  -33.4630    9.3360 O.3    97  SER97      -0.2180
     41  N        -23.6840  -28.6900    3.3640 N.3    99  PHE99      -0.1241
     42  CA       -22.8980  -27.5430    2.9190 C.3    99  PHE99       0.1605
     43  C        -23.8140  -26.4250    2.4410 C.2    99  PHE99       0.2264
     44  O        -24.8260  -26.6780    1.7860 O.2    99  PHE99      -0.2867
     45  CB       -21.9900  -27.9570    1.7560 C.3    99  PHE99       0.0534
     46  CG       -21.0570  -26.8820    1.3050 C.ar   99  PHE99      -0.0203
     47  CD1      -19.7940  -26.7610    1.8740 C.ar   99  PHE99      -0.0042
     48  CD2      -21.4400  -25.9770    0.3220 C.ar   99  PHE99      -0.0042
     49  CE1      -18.9260  -25.7600    1.4770 C.ar   99  PHE99      -0.0003
     50  CE2      -20.5830  -24.9690   -0.0860 C.ar   99  PHE99      -0.0003
     51  CZ       -19.3170  -24.8570    0.4930 C.ar   99  PHE99      -0.0000
     52  N        -21.6070  -25.2660    5.8510 N.3   101  PRO101     -0.2116
     53  CA       -21.9170  -25.4280    7.2780 C.3   101  PRO101      0.1372
     54  C        -22.3060  -24.0800    7.8580 C.2   101  PRO101      0.2244
     55  O        -21.7270  -23.0420    7.5030 O.2   101  PRO101     -0.2868
     56  CB       -20.6200  -25.9890    7.8650 C.3   101  PRO101      0.0268
     57  CG       -19.5750  -25.4460    6.9700 C.3   101  PRO101      0.0207
     58  CD       -20.1880  -25.5460    5.5820 C.3   101  PRO101      0.0892
     59  N         -0.2850  -32.1020    4.9780 N.3   142  THR142     -0.1203
     60  CA        -0.9640  -32.5760    3.7730 C.3   142  THR142      0.1994
     61  C         -1.9790  -33.6780    4.0390 C.2   142  THR142      0.2618
     62  O         -2.7070  -34.1030    3.1430 O.2   142  THR142     -0.2717
     63  CB         0.0640  -33.0730    2.7280 C.3   142  THR142      0.1784
     64  OG1        1.1140  -33.8000    3.3900 O.3   142  THR142     -0.2211
     65  CG2        0.6630  -31.8870    1.9610 C.3   142  THR142      0.0376
     66  N         -2.0300  -34.1380    5.2770 N.am  143  ASP143     -0.1959
     67  CA        -2.9650  -35.1800    5.6700 C.3   143  ASP143      0.1840
     68  C         -4.4300  -34.6950    5.6700 C.2   143  ASP143      0.2622
     69  O         -5.3510  -35.4250    5.2940 O.2   143  ASP143     -0.2715
     70  CB        -2.6190  -35.6510    7.0850 C.3   143  ASP143      0.1450
     71  CG        -2.5890  -37.1530    7.2110 C.2   143  ASP143      0.3671
     72  OD1       -1.5480  -37.7430    6.8520 O.co2 143  ASP143     -0.2456
     73  OD2       -3.6030  -37.7350    7.6590 O.co2 143  ASP143     -0.2456
     74  N         -4.6250  -33.4510    6.1000 N.am  144  TYR144     -0.1960
     75  CA        -5.9530  -32.8730    6.2400 C.3   144  TYR144      0.1771
     76  C         -6.1020  -31.5640    5.4980 C.2   144  TYR144      0.2620
     77  O         -5.1110  -30.9070    5.2110 O.2   144  TYR144     -0.2715
     78  CB        -6.2110  -32.6270    7.7240 C.3   144  TYR144      0.0574
     79  CG        -6.6130  -33.8440    8.5230 C.ar  144  TYR144     -0.0198
     80  CD1       -7.9480  -34.2380    8.5830 C.ar  144  TYR144     -0.0009
     81  CD2       -5.6780  -34.5650    9.2740 C.ar  144  TYR144     -0.0009
     82  CE1       -8.3510  -35.3030    9.3750 C.ar  144  TYR144      0.0417
     83  CE2       -6.0740  -35.6380   10.0730 C.ar  144  TYR144      0.0417
     84  CZ        -7.4150  -35.9950   10.1230 C.ar  144  TYR144      0.1957
     85  OH        -7.8610  -36.9960   10.9500 O.3   144  TYR144     -0.2866
     86  N         -7.3420  -31.1800    5.2040 N.am  145  SER145     -0.1950
     87  CA        -7.6150  -29.9110    4.5130 C.3   145  SER145      0.1924
     88  C         -7.5000  -28.7460    5.5200 C.2   145  SER145      0.2314
     89  O         -7.2130  -28.9620    6.6980 O.2   145  SER145     -0.2863
     90  CB        -9.0340  -29.9190    3.9170 C.3   145  SER145      0.2116
     91  OG        -9.2250  -30.9840    2.9950 O.3   145  SER145     -0.2180
     92  N         -9.7340  -25.3800    6.6950 N.3   147  HIS147     -0.1241
     93  CA       -10.9800  -24.6230    6.5660 C.3   147  HIS147      0.1621
     94  C        -10.7780  -23.2010    7.0720 C.2   147  HIS147      0.2264
     95  O         -9.8860  -22.9260    7.8920 O.2   147  HIS147     -0.2867
     96  CB       -12.0760  -25.2710    7.4020 C.3   147  HIS147      0.0745
     97  CG       -12.3720  -26.6860    7.0280 C.ar  147  HIS147      0.0817
     98  ND1      -13.2500  -27.0200    6.0190 N.ar  147  HIS147     -0.2268
     99  CD2      -11.9540  -27.8540    7.5690 C.ar  147  HIS147      0.1154
    100  CE1      -13.3680  -28.3350    5.9610 C.ar  147  HIS147      0.1986
    101  NE2      -12.5920  -28.8650    6.8900 N.ar  147  HIS147     -0.2212
    102  N        -18.8240  -19.5670    7.3260 N.3   159  TYR159     -0.1241
    103  CA       -17.8730  -20.4460    6.6310 C.3   159  TYR159      0.1605
    104  C        -17.3940  -19.8190    5.3170 C.2   159  TYR159      0.2264
    105  O        -18.2080  -19.4190    4.4730 O.2   159  TYR159     -0.2867
    106  CB       -18.5400  -21.7770    6.3180 C.3   159  TYR159      0.0534
    107  CG       -17.5870  -22.8400    5.8330 C.ar  159  TYR159     -0.0201
    108  CD1      -16.6390  -23.4020    6.6950 C.ar  159  TYR159     -0.0009
    109  CD2      -17.6220  -23.2900    4.5090 C.ar  159  TYR159     -0.0009
    110  CE1      -15.7460  -24.3870    6.2530 C.ar  159  TYR159      0.0417
    111  CE2      -16.7350  -24.2760    4.0590 C.ar  159  TYR159      0.0417
    112  CZ       -15.7980  -24.8200    4.9340 C.ar  159  TYR159      0.1957
    113  OH       -14.9110  -25.7830    4.4950 O.3   159  TYR159     -0.2866
    114  N        -12.7700  -24.1860    2.1080 N.3   162  TRP162     -0.1241
    115  CA       -11.6160  -24.9840    2.4910 C.3   162  TRP162      0.1605
    116  C        -10.7140  -25.2690    1.2950 C.2   162  TRP162      0.2264
    117  O        -11.1100  -25.0940    0.1370 O.2   162  TRP162     -0.2867
    118  CB       -12.0890  -26.2970    3.1240 C.3   162  TRP162      0.0550
    119  CG       -12.2180  -27.4460    2.1830 C.ar  162  TRP162      0.0003
    120  CD1      -11.2180  -28.2900    1.7680 C.ar  162  TRP162      0.0946
    121  CD2      -13.4220  -27.9320    1.5900 C.ar  162  TRP162      0.0152
    122  NE1      -11.7330  -29.2730    0.9670 N.ar  162  TRP162     -0.2442
    123  CE2      -13.0830  -29.0820    0.8390 C.ar  162  TRP162      0.0810
    124  CE3      -14.7550  -27.5120    1.6240 C.ar  162  TRP162      0.0012
    125  CZ2      -14.0310  -29.8210    0.1280 C.ar  162  TRP162      0.0191
    126  CZ3      -15.7030  -28.2460    0.9160 C.ar  162  TRP162      0.0001
    127  CH2      -15.3330  -29.3920    0.1780 C.ar  162  TRP162      0.0015
    128  N         -7.9020  -28.2060   -0.2710 N.3   164  ASN164     -0.1225
    129  CA        -7.3140  -29.5470   -0.2250 C.3   164  ASN164      0.1785
    130  C         -5.8050  -29.2840   -0.1460 C.2   164  ASN164      0.2598
    131  O         -5.2290  -28.6420   -1.0350 O.2   164  ASN164     -0.2718
    132  CB        -7.6780  -30.3200   -1.5160 C.3   164  ASN164      0.1169
    133  CG        -7.2680  -31.7880   -1.4760 C.2   164  ASN164      0.2627
    134  OD1       -6.1070  -32.1110   -1.2690 O.2   164  ASN164     -0.2716
    135  ND2       -8.2290  -32.6800   -1.6870 N.am  164  ASN164     -0.0877
    136  N         -5.1640  -29.7500    0.9210 N.am  165  THR165     -0.1939
    137  CA        -3.7370  -29.4990    1.0710 C.3   165  THR165      0.2028
    138  C         -2.8370  -30.3700    0.1810 C.2   165  THR165      0.2642
    139  O         -1.6450  -30.0860    0.0280 O.2   165  THR165     -0.2714
    140  CB        -3.3220  -29.6240    2.5440 C.3   165  THR165      0.1808
    141  OG1       -3.7630  -30.8790    3.0600 O.3   165  THR165     -0.2208
    142  CG2       -3.9590  -28.4950    3.3670 C.3   165  THR165      0.0379
    143  N         -3.4010  -31.4200   -0.4130 N.am  166  GLU166     -0.1976
    144  CA        -2.6220  -32.2940   -1.3010 C.3   166  GLU166      0.1602
    145  C         -2.7690  -31.8220   -2.7380 C.2   166  GLU166      0.2287
    146  O         -1.7830  -31.5880   -3.4320 O.2   166  GLU166     -0.2864
    147  CB        -3.1070  -33.7410   -1.2170 C.3   166  GLU166      0.0415
    148  CG        -2.9890  -34.3670    0.1620 C.3   166  GLU166      0.1163
    149  CD        -3.4510  -35.8200    0.1810 C.2   166  GLU166      0.3649
    150  OE1       -3.7590  -36.3520   -0.9130 O.co2 166  GLU166     -0.2457
    151  OE2       -3.5010  -36.4290    1.2820 O.co2 166  GLU166     -0.2457
    152  N        -10.2320  -29.8290   10.5930 N.3   211  ASP211     -0.1239
    153  CA       -11.3140  -30.7730   10.9150 C.3   211  ASP211      0.1674
    154  C        -10.7030  -32.1130   11.3790 C.2   211  ASP211      0.2266
    155  O         -9.5030  -32.3600   11.2210 O.2   211  ASP211     -0.2867
    156  CB       -12.2450  -31.0130    9.7070 C.3   211  ASP211      0.1410
    157  CG       -11.6490  -31.9740    8.6700 C.2   211  ASP211      0.3668
    158  OD1      -11.4460  -33.1710    8.9820 O.co2 211  ASP211     -0.2456
    159  OD2      -11.3890  -31.5240    7.5350 O.co2 211  ASP211     -0.2456
    160  N        -12.8290  -34.8530   10.8450 N.3   213  HIS213     -0.1226
    161  CA       -14.0120  -35.5250   10.3410 C.3   213  HIS213      0.1752
    162  C        -13.9850  -37.0430   10.3750 C.2   213  HIS213      0.2596
    163  O        -15.0380  -37.6640   10.5260 O.2   213  HIS213     -0.2718
    164  CB       -14.3540  -35.0290    8.9310 C.3   213  HIS213      0.0759
    165  CG       -13.4750  -35.5850    7.8510 C.ar  213  HIS213      0.0818
    166  ND1      -12.1180  -35.3480    7.7930 N.ar  213  HIS213     -0.2268
    167  CD2      -13.7680  -36.3650    6.7820 C.ar  213  HIS213      0.1154
    168  CE1      -11.6120  -35.9580    6.7360 C.ar  213  HIS213      0.1986
    169  NE2      -12.5930  -36.5830    6.1060 N.ar  213  HIS213     -0.2212
    170  N        -12.8150  -37.6610   10.2360 N.am  214  ASP214     -0.1974
    171  CA       -12.8000  -39.1170   10.2990 C.3   214  ASP214      0.1709
    172  C        -13.1950  -39.5940   11.7150 C.2   214  ASP214      0.2293
    173  O        -13.3600  -40.8020   11.9580 O.2   214  ASP214     -0.2864
    174  CB       -11.4340  -39.6760    9.8920 C.3   214  ASP214      0.1436
    175  CG       -10.2830  -39.0230   10.6290 C.2   214  ASP214      0.3671
    176  OD1      -10.4260  -37.8590   11.0650 O.co2 214  ASP214     -0.2456
    177  OD2       -9.2240  -39.6810   10.7550 O.co2 214  ASP214     -0.2456
    178  N        -16.3350  -31.8900   13.2370 N.3   218  ILE218     -0.1231
    179  CA       -16.1160  -30.9560   12.1590 C.3   218  ILE218      0.1692
    180  C        -14.9890  -29.9630   12.4780 C.2   218  ILE218      0.2592
    181  O        -13.8310  -30.2120   12.1350 O.2   218  ILE218     -0.2718
    182  CB       -17.4370  -30.2420   11.7900 C.3   218  ILE218      0.0266
    183  CG1      -18.4960  -31.2890   11.4390 C.3   218  ILE218      0.0019
    184  CG2      -17.2500  -29.3590   10.5650 C.3   218  ILE218      0.0020
    185  CD1      -18.0470  -32.2450   10.3450 C.3   218  ILE218      0.0001
    186  N        -15.2950  -28.8620   13.1500 N.am  219  PHE219     -0.1976
    187  CA       -14.2510  -27.8870   13.4600 C.3   219  PHE219      0.1639
    188  C        -13.5850  -28.1250   14.8180 C.2   219  PHE219      0.2290
    189  O        -13.8990  -27.4810   15.8210 O.2   219  PHE219     -0.2864
    190  CB       -14.8480  -26.4930   13.3610 C.3   219  PHE219      0.0560
    191  CG       -15.3060  -26.1650   11.9870 C.ar  219  PHE219     -0.0200
    192  CD1      -14.4930  -26.4720   10.8990 C.ar  219  PHE219     -0.0042
    193  CD2      -16.5330  -25.5520   11.7670 C.ar  219  PHE219     -0.0042
    194  CE1      -14.8870  -26.1800    9.6060 C.ar  219  PHE219     -0.0003
    195  CE2      -16.9390  -25.2520   10.4770 C.ar  219  PHE219     -0.0003
    196  CZ       -16.1160  -25.5670    9.3910 C.ar  219  PHE219     -0.0000
@<TRIPOS>BOND
     1   146   145    2
     2   145   144    1
     3   135   133   am
     4   132   133    1
     5   132   129    1
     6   133   134    2
     7   144   147    1
     8   144   143    1
     9   147   148    1
    10   131   130    2
    11   150   149   ar
    12   143   138   am
    13   128   129    1
    14   129   130    1
    15   130   136   am
    16    50    48   ar
    17    50    51   ar
    18   139   138    2
    19   125   127   ar
    20   125   123   ar
    21   117   116    2
    22   148   149    1
    23   127   126   ar
    24   138   137    1
    25   149   151   ar
    26    48    46   ar
    27    51    49   ar
    28   123   122   ar
    29   123   121   ar
    30   126   124   ar
    31   136   137    1
    32   122   120   ar
    33   137   140    1
    34   116   115    1
    35    46    45    1
    36    46    47   ar
    37    49    47   ar
    38   121   124   ar
    39   121   119   ar
    40    45    42    1
    41   120   119   ar
    42    44    43    2
    43    65    63    1
    44   114   115    1
    45   119   118    1
    46    43    42    1
    47   115   118    1
    48   140   141    1
    49   140   142    1
    50    63    64    1
    51    63    60    1
    52    42    41    1
    53    91    90    1
    54    62    61    2
    55    60    61    1
    56    60    59    1
    57    90    87    1
    58    61    66   am
    59   111   109   ar
    60   111   112   ar
    61     9    10   ar
    62     9     7   ar
    63    10     8   ar
    64   105   104    2
    65   113   112    1
    66   109   107   ar
    67    87    86    1
    68    87    88    1
    69    11    12    1
    70   112   110   ar
    71     7     6   ar
    72    86    76   am
    73    77    76    2
    74    66    67    1
    75    69    68    2
    76   104   103    1
    77     8     6   ar
    78    38    37    2
    79    12    15    1
    80    12    13    1
    81    76    75    1
    82    88    89    2
    83    58    52    1
    84    58    57    1
    85    68    67    1
    86    68    74   am
    87    67    70    1
    88     3     4    2
    89     3     2    1
    90    15    16    1
    91     6     5    1
    92   107   106    1
    93   107   108   ar
    94    52    53    1
    95   100    98   ar
    96   100   101   ar
    97    98    97   ar
    98    74    75    1
    99   169   168   ar
   100   169   167   ar
   101    75    78    1
   102   110   108   ar
   103    37    36    1
   104   106   103    1
   105     2     5    1
   106     2     1    1
   107    93    92    1
   108    93    94    1
   109    93    96    1
   110   103   102    1
   111    13    14    2
   112   168   166   ar
   113   167   165   ar
   114    18    16   am
   115    16    17    2
   116    72    71   ar
   117   101    99   ar
   118    57    56    1
   119    97    96    1
   120    97    99   ar
   121    94    95    2
   122    70    71    1
   123    71    73   ar
   124    53    54    1
   125    53    56    1
   126    34    33    2
   127    55    54    2
   128   159   157   ar
   129    78    79    1
   130    36    39    1
   131    36    35    1
   132   166   165   ar
   133   165   164    1
   134    39    40    1
   135    33    35   am
   136    33    32    1
   137    79    80   ar
   138    79    81   ar
   139    80    82   ar
   140   157   158   ar
   141   157   156    1
   142    28    26   ar
   143    28    29   ar
   144   164   161    1
   145    30    29    1
   146    32    31    1
   147    81    83   ar
   148    82    84   ar
   149    26    24   ar
   150   196   194   ar
   151   196   195   ar
   152    29    27   ar
   153   194   192   ar
   154   156   153    1
   155   174   171    1
   156   174   175    1
   157    83    84   ar
   158    84    85    1
   159   170   171    1
   160   170   162   am
   161   171   172    1
   162   161   162    1
   163   161   160    1
   164   185   183    1
   165   162   163    2
   166   195   193   ar
   167   184   182    1
   168   152   153    1
   169    24    23    1
   170    24    25   ar
   171   175   177   ar
   172   175   176   ar
   173    27    25   ar
   174   192   191   ar
   175   153   154    1
   176   155   154    2
   177    23    20    1
   178   183   182    1
   179   172   173    2
   180   193   191   ar
   181   182   179    1
   182    19    20    1
   183   191   190    1
   184   181   180    2
   185   179   180    1
   186   179   178    1
   187    20    21    1
   188   180   186   am
   189    22    21    2
   190   186   187    1
   191   190   187    1
   192   187   188    1
   193   188   189    2
