@<TRIPOS>MOLECULE
tmp/1sw1B00.pdb
 126 120 0 0 0
SMALL
GASTEIGER

@<TRIPOS>ATOM
      1  N         20.6350  -37.2010   15.9240 N.3     8  LYS8       -0.1245
      2  CA        19.3800  -37.8480   16.2590 C.3     8  LYS8        0.1561
      3  C         18.7220  -38.1950   14.9200 C.2     8  LYS8        0.2260
      4  O         19.1540  -37.6970   13.8920 O.2     8  LYS8       -0.2867
      5  CB        18.5070  -36.8950   17.0550 C.3     8  LYS8        0.0271
      6  CG        19.2300  -36.1780   18.2240 C.3     8  LYS8        0.0035
      7  CD        18.2610  -35.3630   19.0580 C.3     8  LYS8        0.0206
      8  CE        18.9440  -34.3900   19.9830 C.3     8  LYS8        0.1093
      9  NZ        17.9190  -33.7540   20.9180 N.3     8  LYS8       -0.1314
     10  N         16.4290  -37.6530   12.3830 N.3    10  PHE10      -0.1241
     11  CA        15.4520  -36.9060   11.6020 C.3    10  PHE10       0.1605
     12  C         16.1150  -35.8420   10.7470 C.2    10  PHE10       0.2264
     13  O         17.2320  -35.4420   11.0170 O.2    10  PHE10      -0.2867
     14  CB        14.3290  -36.3030   12.4860 C.3    10  PHE10       0.0534
     15  CG        14.8000  -35.4620   13.6450 C.ar   10  PHE10      -0.0203
     16  CD1       14.8580  -34.0740   13.5460 C.ar   10  PHE10      -0.0042
     17  CD2       15.1050  -36.0430   14.8650 C.ar   10  PHE10      -0.0042
     18  CE1       15.2310  -33.3140   14.6040 C.ar   10  PHE10      -0.0003
     19  CE2       15.4650  -35.2550   15.9320 C.ar   10  PHE10      -0.0003
     20  CZ        15.5580  -33.8870   15.7830 C.ar   10  PHE10      -0.0000
     21  N         18.4440  -38.3000   22.1940 N.3    39  THR39      -0.1218
     22  CA        19.1070  -37.2550   22.9750 C.3    39  THR39       0.1862
     23  C         20.1530  -37.7880   23.9560 C.2    39  THR39       0.2287
     24  O         21.3270  -37.4210   23.9020 O.2    39  THR39      -0.2866
     25  CB        18.0510  -36.4960   23.7810 C.3    39  THR39       0.1770
     26  OG1       17.1540  -35.8220   22.8780 O.3    39  THR39      -0.2211
     27  CG2       18.7110  -35.4090   24.6030 C.3    39  THR39       0.0375
     28  N         19.0530  -28.8880   21.4370 N.3    57  TYR57      -0.1241
     29  CA        18.0210  -27.8430   21.5070 C.3    57  TYR57       0.1605
     30  C         17.9330  -27.3550   22.9410 C.2    57  TYR57       0.2264
     31  O         18.0140  -28.1480   23.8520 O.2    57  TYR57      -0.2867
     32  CB        16.6570  -28.3790   21.0330 C.3    57  TYR57       0.0534
     33  CG        16.7480  -28.9620   19.6570 C.ar   57  TYR57      -0.0201
     34  CD1       16.3970  -28.2380   18.5450 C.ar   57  TYR57      -0.0009
     35  CD2       17.2660  -30.2690   19.4670 C.ar   57  TYR57      -0.0009
     36  CE1       16.5210  -28.7700   17.2650 C.ar   57  TYR57       0.0417
     37  CE2       17.3870  -30.8060   18.2120 C.ar   57  TYR57       0.0417
     38  CZ        17.0300  -30.0710   17.1030 C.ar   57  TYR57       0.1957
     39  OH        17.1450  -30.6200   15.8320 O.3    57  TYR57      -0.2866
     40  N         15.5200  -29.0140   25.4610 N.3    60  THR60      -0.1218
     41  CA        15.9090  -30.4180   25.7080 C.3    60  THR60       0.1862
     42  C         17.0650  -30.4910   26.7020 C.2    60  THR60       0.2287
     43  O         17.0710  -31.3360   27.6440 O.2    60  THR60      -0.2866
     44  CB        16.3170  -30.9960   24.3860 C.3    60  THR60       0.1770
     45  OG1       15.1940  -30.9450   23.4960 O.3    60  THR60      -0.2211
     46  CG2       16.7480  -32.4760   24.5130 C.3    60  THR60       0.0375
     47  N         12.9790  -25.5620   16.6620 N.3   103  ASP103     -0.1225
     48  CA        12.2130  -26.7090   16.2420 C.3   103  ASP103      0.1805
     49  C         11.5140  -27.2660   17.4760 C.2   103  ASP103      0.2598
     50  O         12.0510  -28.1560   18.1760 O.2   103  ASP103     -0.2718
     51  CB        13.1330  -27.7820   15.6270 C.3   103  ASP103      0.1424
     52  CG        12.3800  -28.9950   15.1570 C.2   103  ASP103      0.3668
     53  OD1       11.1440  -28.9820   15.2370 O.co2 103  ASP103     -0.2456
     54  OD2       12.9290  -30.0270   14.7380 O.co2 103  ASP103     -0.2456
     55  N         10.2940  -26.7900   17.7240 N.am  104  ASP104     -0.1960
     56  CA         9.5340  -27.2140   18.9060 C.3   104  ASP104      0.1840
     57  C          8.7220  -28.4660   18.6830 C.2   104  ASP104      0.2622
     58  O          8.2830  -28.7210   17.5850 O.2   104  ASP104     -0.2715
     59  CB         8.5380  -26.1700   19.3620 C.3   104  ASP104      0.1450
     60  CG         9.1700  -24.8710   19.7840 C.2   104  ASP104      0.3671
     61  OD1       10.3930  -24.7980   20.0980 O.co2 104  ASP104     -0.2456
     62  OD2        8.4420  -23.8560   19.8800 O.co2 104  ASP104     -0.2456
     63  N          8.4910  -29.1930   19.7610 N.am  105  TYR105     -0.1974
     64  CA         7.3920  -30.1590   19.8010 C.3   105  TYR105      0.1639
     65  C          6.1060  -29.3650   19.8200 C.2   105  TYR105      0.2290
     66  O          6.0080  -28.3280   20.4980 O.2   105  TYR105     -0.2864
     67  CB         7.4430  -31.0050   21.0640 C.3   105  TYR105      0.0560
     68  CG         8.4060  -32.1570   21.0860 C.ar  105  TYR105     -0.0198
     69  CD1        8.2870  -33.1850   20.2010 C.ar  105  TYR105     -0.0009
     70  CD2        9.3900  -32.2480   22.0520 C.ar  105  TYR105     -0.0009
     71  CE1        9.1240  -34.2880   20.2580 C.ar  105  TYR105      0.0417
     72  CE2       10.2470  -33.3370   22.1100 C.ar  105  TYR105      0.0417
     73  CZ        10.1130  -34.3460   21.1870 C.ar  105  TYR105      0.1957
     74  OH        10.9320  -35.4530   21.2090 O.3   105  TYR105     -0.2866
     75  N          7.2510  -40.1350   18.8620 N.3   137  ASP137     -0.1239
     76  CA         8.5930  -40.4390   18.3950 C.3   137  ASP137      0.1674
     77  C          9.2900  -41.2820   19.4910 C.2   137  ASP137      0.2266
     78  O          8.6370  -41.6910   20.4490 O.2   137  ASP137     -0.2867
     79  CB         9.3320  -39.1440   18.0270 C.3   137  ASP137      0.1410
     80  CG         9.7490  -38.3450   19.2070 C.2   137  ASP137      0.3668
     81  OD1        9.5320  -38.7920   20.3550 O.co2 137  ASP137     -0.2456
     82  OD2       10.3040  -37.2220   19.0780 O.co2 137  ASP137     -0.2456
     83  N         11.1340  -40.7240   21.9200 N.3   139  GLU139     -0.1245
     84  CA        11.5010  -40.0180   23.1540 C.3   139  GLU139      0.1567
     85  C         10.3550  -39.3090   23.9050 C.2   139  GLU139      0.2260
     86  O         10.3750  -39.2270   25.1330 O.2   139  GLU139     -0.2867
     87  CB        12.5360  -38.9200   22.8110 C.3   139  GLU139      0.0388
     88  CG        13.9690  -39.3690   22.7240 C.3   139  GLU139      0.1160
     89  CD        14.8870  -38.2480   22.3520 C.2   139  GLU139      0.3649
     90  OE1       15.6950  -38.4350   21.4110 O.co2 139  GLU139     -0.2457
     91  OE2       14.7600  -37.1590   22.9490 O.co2 139  GLU139     -0.2457
     92  N         10.1300  -38.7420   28.0170 N.3   143  ARG143     -0.1245
     93  CA        10.8800  -37.5530   28.4260 C.3   143  ARG143      0.1563
     94  C         10.1240  -36.7510   29.5110 C.2   143  ARG143      0.2260
     95  O          8.9070  -36.7350   29.5150 O.2   143  ARG143     -0.2867
     96  CB        11.0770  -36.6090   27.2270 C.3   143  ARG143      0.0307
     97  CG        12.2170  -36.8920   26.3430 C.3   143  ARG143      0.0489
     98  CD        12.1330  -36.1470   25.0290 C.3   143  ARG143      0.2205
     99  NE        12.2880  -34.6930   25.2190 N.pl3 143  ARG143     -0.0865
    100  CZ        13.0730  -33.9230   24.4950 C.cat 143  ARG143      0.5346
    101  NH1       13.8160  -34.4280   23.5310 N.pl3 143  ARG143      0.1354
    102  NH2       13.1220  -32.6180   24.7440 N.pl3 143  ARG143      0.1354
    103  N          7.0960  -31.9500   14.8180 N.3   182  TYR182     -0.1241
    104  CA         8.2300  -31.0550   14.8810 C.3   182  TYR182      0.1605
    105  C          7.8820  -29.8030   14.0740 C.2   182  TYR182      0.2264
    106  O          7.4890  -29.8980   12.8970 O.2   182  TYR182     -0.2867
    107  CB         9.4660  -31.7080   14.3020 C.3   182  TYR182      0.0534
    108  CG         9.9330  -32.9970   14.9880 C.ar  182  TYR182     -0.0201
    109  CD1        9.2060  -33.6100   16.0170 C.ar  182  TYR182     -0.0009
    110  CD2       11.1410  -33.5800   14.6090 C.ar  182  TYR182     -0.0009
    111  CE1        9.6910  -34.7920   16.6410 C.ar  182  TYR182      0.0417
    112  CE2       11.6060  -34.7410   15.2120 C.ar  182  TYR182      0.0417
    113  CZ        10.8940  -35.3480   16.1950 C.ar  182  TYR182      0.1957
    114  OH        11.4310  -36.4990   16.7630 O.3   182  TYR182     -0.2866
    115  N         12.5810  -24.6610   22.0520 N.3   206  TYR206     -0.1241
    116  CA        13.6450  -25.5650   21.6360 C.3   206  TYR206      0.1605
    117  C         14.4850  -24.9140   20.5390 C.2   206  TYR206      0.2264
    118  O         14.2560  -25.1470   19.3560 O.2   206  TYR206     -0.2867
    119  CB        13.0220  -26.8480   21.1430 C.3   206  TYR206      0.0534
    120  CG        12.2340  -27.6230   22.1780 C.ar  206  TYR206     -0.0201
    121  CD1       12.8590  -28.5250   23.0200 C.ar  206  TYR206     -0.0009
    122  CD2       10.8560  -27.5000   22.2830 C.ar  206  TYR206     -0.0009
    123  CE1       12.1520  -29.2560   23.9600 C.ar  206  TYR206      0.0417
    124  CE2       10.1360  -28.2570   23.2170 C.ar  206  TYR206      0.0417
    125  CZ        10.8000  -29.1330   24.0530 C.ar  206  TYR206      0.1957
    126  OH        10.1020  -29.8840   24.9830 O.3   206  TYR206     -0.2866
@<TRIPOS>BOND
     1    12    13    2
     2    12    11    1
     3    11    10    1
     4    11    14    1
     5    14    15    1
     6   106   105    2
     7    16    15   ar
     8    16    18   ar
     9    15    17   ar
    10     4     3    2
    11   105   104    1
    12   107   104    1
    13   107   108    1
    14    18    20   ar
    15   110   108   ar
    16   110   112   ar
    17    54    52   ar
    18   103   104    1
    19    17    19   ar
    20     3     2    1
    21   108   109   ar
    22    52    53   ar
    23    52    51    1
    24   112   113   ar
    25    51    48    1
    26    20    19   ar
    27    39    38    1
    28     1     2    1
    29   109   111   ar
    30   113   111   ar
    31   113   114    1
    32    48    47    1
    33    48    49    1
    34     2     5    1
    35     5     6    1
    36    38    36   ar
    37    38    37   ar
    38    36    34   ar
    39    49    55   am
    40    49    50    2
    41    58    57    2
    42    55    56    1
    43    79    76    1
    44    79    80    1
    45    37    35   ar
    46     6     7    1
    47    76    75    1
    48    76    77    1
    49    34    33   ar
    50    57    56    1
    51    57    63   am
    52    56    59    1
    53     7     8    1
    54    82    80   ar
    55    80    81   ar
    56   118   117    2
    57    59    60    1
    58    35    33   ar
    59    77    78    2
    60    33    32    1
    61    63    64    1
    62    60    62   ar
    63    60    61   ar
    64    64    65    1
    65    64    67    1
    66    65    66    2
    67     8     9    1
    68    69    71   ar
    69    69    68   ar
    70    71    73   ar
    71   117   116    1
    72    32    29    1
    73    67    68    1
    74    68    70   ar
    75   119   116    1
    76   119   120    1
    77    73    74    1
    78    73    72   ar
    79    90    89   ar
    80    28    29    1
    81    29    30    1
    82   116   115    1
    83    83    84    1
    84    70    72   ar
    85   120   122   ar
    86   120   121   ar
    87    21    22    1
    88   122   124   ar
    89    89    88    1
    90    89    91   ar
    91    88    87    1
    92    87    84    1
    93    26    25    1
    94    30    31    2
    95    22    25    1
    96    22    23    1
    97   121   123   ar
    98    84    85    1
    99   124   125   ar
   100    45    44    1
   101   101   100    1
   102    25    27    1
   103    24    23    2
   104    85    86    2
   105   123   125   ar
   106   125   126    1
   107    44    46    1
   108    44    41    1
   109   100   102    1
   110   100    99    2
   111    98    99    1
   112    98    97    1
   113    40    41    1
   114    41    42    1
   115    97    96    1
   116    42    43    2
   117    96    93    1
   118    92    93    1
   119    93    94    1
   120    94    95    2
