@<TRIPOS>MOLECULE
tmp/1sw2A00.pdb
 118 113 0 0 0
SMALL
GASTEIGER

@<TRIPOS>ATOM
      1  N         22.7330   13.6270   13.1330 N.3     8  LYS8       -0.1245
      2  CA        22.6270   14.6780   12.1270 C.3     8  LYS8        0.1561
      3  C         23.4930   15.8600   12.6160 C.2     8  LYS8        0.2260
      4  O         23.8490   15.8850   13.7840 O.2     8  LYS8       -0.2867
      5  CB        21.1780   15.1010   12.0010 C.3     8  LYS8        0.0271
      6  CG        20.1890   13.9360   11.6950 C.3     8  LYS8        0.0035
      7  CD        18.7970   14.4690   11.4010 C.3     8  LYS8        0.0206
      8  CE        17.7110   13.4330   11.6900 C.3     8  LYS8        0.1093
      9  NZ        16.3640   13.9410   11.3380 N.3     8  LYS8       -0.1314
     10  N         23.9640   18.9630   13.9980 N.3    10  PHE10      -0.1241
     11  CA        23.5770   20.1340   14.7630 C.3    10  PHE10       0.1605
     12  C         23.5160   19.8590   16.2360 C.2    10  PHE10       0.2264
     13  O         23.4900   18.7240   16.6860 O.2    10  PHE10      -0.2867
     14  CB        22.2530   20.7480   14.2970 C.3    10  PHE10       0.0534
     15  CG        21.0740   19.7940   14.2890 C.ar   10  PHE10      -0.0203
     16  CD1       20.1440   19.8100   15.3150 C.ar   10  PHE10      -0.0042
     17  CD2       20.8550   18.9670   13.1930 C.ar   10  PHE10      -0.0042
     18  CE1       19.0260   18.9500   15.2680 C.ar   10  PHE10      -0.0003
     19  CE2       19.7410   18.1410   13.1190 C.ar   10  PHE10      -0.0003
     20  CZ        18.8430   18.1090   14.1460 C.ar   10  PHE10      -0.0000
     21  N         19.1270   12.9750    7.5600 N.3    40  THR40      -0.1218
     22  CA        18.2330   11.9670    8.1090 C.3    40  THR40       0.1862
     23  C         18.3680   10.6200    7.4340 C.2    40  THR40       0.2287
     24  O         18.5840    9.6290    8.1260 O.2    40  THR40      -0.2866
     25  CB        16.7500   12.4310    8.3750 C.3    40  THR40       0.1770
     26  OG1       15.7470   11.6000    7.7330 O.3    40  THR40      -0.2211
     27  CG2       16.4960   13.7920    8.0020 C.3    40  THR40       0.0375
     28  N         13.1020   12.4560   14.7310 N.3    58  TYR58      -0.1241
     29  CA        11.9530   13.2720   15.1070 C.3    58  TYR58       0.1605
     30  C         10.7320   12.6960   14.4400 C.2    58  TYR58       0.2264
     31  O         10.8010   12.2550   13.3020 O.2    58  TYR58      -0.2867
     32  CB        12.1920   14.7350   14.6940 C.3    58  TYR58       0.0534
     33  CG        13.4970   15.2410   15.2610 C.ar   58  TYR58      -0.0201
     34  CD1       13.5280   15.8940   16.4850 C.ar   58  TYR58      -0.0009
     35  CD2       14.7030   14.9970   14.6210 C.ar   58  TYR58      -0.0009
     36  CE1       14.7190   16.3090   17.0430 C.ar   58  TYR58       0.0417
     37  CE2       15.9250   15.4080   15.1830 C.ar   58  TYR58       0.0417
     38  CZ        15.9100   16.0780   16.3950 C.ar   58  TYR58       0.1957
     39  OH        17.0670   16.5100   16.9860 O.3    58  TYR58      -0.2866
     40  N          9.7490   14.0370   10.9550 N.3    61  THR61      -0.1218
     41  CA        10.7440   13.5990    9.9750 C.3    61  THR61       0.1862
     42  C         10.5270   12.1250    9.6080 C.2    61  THR61       0.2287
     43  O         10.4570   11.7700    8.4320 O.2    61  THR61      -0.2866
     44  CB        12.1100   13.7880   10.5610 C.3    61  THR61       0.1770
     45  OG1       12.3340   15.1830   10.7520 O.3    61  THR61      -0.2211
     46  CG2       13.2070   13.3240    9.5980 C.3    61  THR61       0.0375
     47  N         11.4940   19.5860   18.5020 N.3   104  ASP104     -0.1225
     48  CA        12.3820   20.5080   17.7780 C.3   104  ASP104      0.1805
     49  C         11.8690   20.6930   16.3600 C.2   104  ASP104      0.2598
     50  O         12.2760   19.9930   15.4070 O.2   104  ASP104     -0.2718
     51  CB        13.8420   20.0350   17.7840 C.3   104  ASP104      0.1424
     52  CG        14.7520   20.9660   17.0180 C.2   104  ASP104      0.3668
     53  OD1       14.2850   22.0590   16.6310 O.co2 104  ASP104     -0.2456
     54  OD2       15.9450   20.6900   16.7210 O.co2 104  ASP104     -0.2456
     55  N         10.9590   21.6490   16.2420 N.am  105  ASP105     -0.1960
     56  CA        10.2360   21.8820   15.0170 C.3   105  ASP105      0.1840
     57  C         11.0550   22.6740   14.0340 C.2   105  ASP105      0.2622
     58  O         11.9280   23.4610   14.3980 O.2   105  ASP105     -0.2715
     59  CB         8.9600   22.6860   15.2810 C.3   105  ASP105      0.1450
     60  CG         7.7910   21.8430   15.7500 C.2   105  ASP105      0.3671
     61  OD1        7.8840   20.6080   15.8870 O.co2 105  ASP105     -0.2456
     62  OD2        6.6880   22.3630   15.9890 O.co2 105  ASP105     -0.2456
     63  N         10.7580   22.4600   12.7680 N.am  106  TYR106     -0.1974
     64  CA        11.0480   23.4630   11.7790 C.3   106  TYR106      0.1639
     65  C         10.0200   24.5980   11.9500 C.2   106  TYR106      0.2290
     66  O          8.8380   24.3450   12.1780 O.2   106  TYR106     -0.2864
     67  CB        10.9070   22.8670   10.3890 C.3   106  TYR106      0.0560
     68  CG        12.1160   22.1440    9.8440 C.ar  106  TYR106     -0.0198
     69  CD1       13.3550   22.7820    9.7150 C.ar  106  TYR106     -0.0009
     70  CD2       12.0060   20.8350    9.4020 C.ar  106  TYR106     -0.0009
     71  CE1       14.4400   22.1360    9.1810 C.ar  106  TYR106      0.0417
     72  CE2       13.0840   20.1790    8.8620 C.ar  106  TYR106      0.0417
     73  CZ        14.3000   20.8340    8.7340 C.ar  106  TYR106      0.1957
     74  OH        15.3530   20.1330    8.1830 O.3   106  TYR106     -0.2866
     75  N         18.5500   20.0890    4.2340 N.3   140  GLU140     -0.1245
     76  CA        17.4370   19.1740    3.9480 C.3   140  GLU140      0.1567
     77  C         16.1180   19.8350    3.5830 C.2   140  GLU140      0.2260
     78  O         15.3540   19.3070    2.7640 O.2   140  GLU140     -0.2867
     79  CB        17.1990   18.2740    5.1620 C.3   140  GLU140      0.0388
     80  CG        18.1860   17.1210    5.2480 C.3   140  GLU140      0.1160
     81  CD        17.9290   16.2080    6.4220 C.2   140  GLU140      0.3649
     82  OE1       18.8810   15.7250    7.0190 O.co2 140  GLU140     -0.2457
     83  OE2       16.7770   15.9700    6.7620 O.co2 140  GLU140     -0.2457
     84  N         13.1610   18.2570    0.9140 N.3   144  ARG144     -0.1245
     85  CA        12.4040   17.1540    1.5020 C.3   144  ARG144      0.1563
     86  C         10.8840   17.4120    1.4600 C.2   144  ARG144      0.2260
     87  O         10.4510   18.5700    1.2850 O.2   144  ARG144     -0.2867
     88  CB        12.9270   16.8400    2.8840 C.3   144  ARG144      0.0307
     89  CG        12.6300   17.8140    3.8940 C.3   144  ARG144      0.0489
     90  CD        13.3590   17.4970    5.1730 C.3   144  ARG144      0.2205
     91  NE        12.4510   17.1660    6.2410 N.pl3 144  ARG144     -0.0865
     92  CZ        12.8510   16.8760    7.4560 C.cat 144  ARG144      0.5346
     93  NH1       14.1310   16.8840    7.7790 N.pl3 144  ARG144      0.1354
     94  NH2       11.9620   16.6060    8.3760 N.pl3 144  ARG144      0.1354
     95  N         15.2750   25.9770   13.7360 N.3   185  TYR185     -0.1241
     96  CA        14.9880   24.8790   14.6550 C.3   185  TYR185      0.1605
     97  C         14.4900   25.4380   15.9890 C.2   185  TYR185      0.2264
     98  O         15.2240   26.1700   16.6610 O.2   185  TYR185     -0.2867
     99  CB        16.2340   24.0450   14.9160 C.3   185  TYR185      0.0534
    100  CG        16.8240   23.3110   13.7350 C.ar  185  TYR185     -0.0201
    101  CD1       16.5590   23.6840   12.4050 C.ar  185  TYR185     -0.0009
    102  CD2       17.6730   22.2410   13.9400 C.ar  185  TYR185     -0.0009
    103  CE1       17.1340   22.9900   11.3410 C.ar  185  TYR185      0.0417
    104  CE2       18.2520   21.5520   12.8710 C.ar  185  TYR185      0.0417
    105  CZ        17.9770   21.9240   11.5970 C.ar  185  TYR185      0.1957
    106  OH        18.5560   21.2390   10.5660 O.3   185  TYR185     -0.2866
    107  N          7.6560   17.7680   15.4390 N.3   209  TYR209     -0.1241
    108  CA         8.9300   17.0350   15.3280 C.3   209  TYR209      0.1605
    109  C          9.3610   16.6060   16.7410 C.2   209  TYR209      0.2264
    110  O         10.2440   17.2020   17.3300 O.2   209  TYR209     -0.2867
    111  CB         9.9840   17.9490   14.6670 C.3   209  TYR209      0.0534
    112  CG         9.6810   18.2430   13.2220 C.ar  209  TYR209     -0.0201
    113  CD1       10.1660   17.4190   12.2150 C.ar  209  TYR209     -0.0009
    114  CD2        8.8640   19.3420   12.8510 C.ar  209  TYR209     -0.0009
    115  CE1        9.8750   17.6750   10.8740 C.ar  209  TYR209      0.0417
    116  CE2        8.5710   19.6010   11.5190 C.ar  209  TYR209      0.0417
    117  CZ         9.0640   18.7500   10.5320 C.ar  209  TYR209      0.1957
    118  OH         8.7930   18.9970    9.1960 O.3   209  TYR209     -0.2866
@<TRIPOS>BOND
     1    84    85    1
     2    87    86    2
     3    86    85    1
     4    85    88    1
     5    78    77    2
     6    88    89    1
     7    77    76    1
     8    89    90    1
     9    76    75    1
    10    76    79    1
    11    79    80    1
    12    90    91    1
    13    80    81    1
    14    91    92    2
    15    81    83   ar
    16    81    82   ar
    17    23    22    1
    18    23    24    2
    19    92    93    1
    20    92    94    1
    21    21    22    1
    22    26    25    1
    23    27    25    1
    24    22    25    1
    25    74    73    1
    26    43    42    2
    27    73    72   ar
    28    73    71   ar
    29    72    70   ar
    30    71    69   ar
    31   118   117    1
    32    70    68   ar
    33    46    44    1
    34    42    41    1
    35    69    68   ar
    36    68    67    1
    37    41    44    1
    38    41    40    1
    39    67    64    1
    40   117   115   ar
    41   117   116   ar
    42    44    45    1
    43   106   105    1
    44   115   113   ar
    45     9     8    1
    46   103   105   ar
    47   103   101   ar
    48     7     8    1
    49     7     6    1
    50   116   114   ar
    51   105   104   ar
    52     6     5    1
    53    64    65    1
    54    64    63    1
    55    65    66    2
    56     5     2    1
    57     2     3    1
    58     2     1    1
    59   113   112   ar
    60   101   100   ar
    61     3     4    2
    62    63    57   am
    63   114   112   ar
    64   104   102   ar
    65    19    17   ar
    66    19    20   ar
    67    17    15   ar
    68   112   111    1
    69    31    30    2
    70   100   102   ar
    71   100    99    1
    72    95    96    1
    73    10    11    1
    74    57    58    2
    75    57    56    1
    76    20    18   ar
    77    15    14    1
    78    15    16   ar
    79    14    11    1
    80    30    29    1
    81    35    37   ar
    82    35    33   ar
    83    96    99    1
    84    96    97    1
    85   111   108    1
    86    32    29    1
    87    32    33    1
    88    28    29    1
    89    11    12    1
    90    56    59    1
    91    56    55    1
    92    37    38   ar
    93    33    34   ar
    94    18    16   ar
    95    59    60    1
    96   108   107    1
    97   108   109    1
    98    50    49    2
    99    60    61   ar
   100    60    62   ar
   101    97    98    2
   102    12    13    2
   103    55    49   am
   104    49    48    1
   105    38    39    1
   106    38    36   ar
   107    34    36   ar
   108    53    52   ar
   109    54    52   ar
   110   109   110    2
   111    52    51    1
   112    48    51    1
   113    48    47    1
