@<TRIPOS>MOLECULE
tmp/1swwA00.pdb
 115 110 0 0 0
SMALL
GASTEIGER

@<TRIPOS>ATOM
      1  N         27.2410   -2.7000    6.9640 N.3     8  ALA8       -0.1231
      2  CA        25.8100   -2.8840    6.8730 C.3     8  ALA8        0.1694
      3  C         25.7210   -4.0770    5.9110 C.2     8  ALA8        0.2592
      4  O         26.7580   -4.5580    5.4060 O.2     8  ALA8       -0.2718
      5  CB        25.1790   -1.6550    6.2340 C.3     8  ALA8        0.0304
      6  N         24.5230   -4.5960    5.6850 N.am    9  TRP9       -0.1962
      7  CA        24.3960   -5.7010    4.7490 C.3     9  TRP9        0.1771
      8  C         23.7620   -5.2850    3.4300 C.2     9  TRP9        0.2619
      9  O         24.4890   -4.9830    2.4870 O.2     9  TRP9       -0.2715
     10  CB        23.6770   -6.8920    5.3740 C.3     9  TRP9        0.0590
     11  CG        24.5980   -7.7790    6.1930 C.ar    9  TRP9        0.0006
     12  CD1       25.0540   -7.5400    7.4600 C.ar    9  TRP9        0.0946
     13  CD2       25.1260   -9.0610    5.8150 C.ar    9  TRP9        0.0152
     14  NE1       25.8160   -8.5940    7.8980 N.ar    9  TRP9       -0.2442
     15  CE2       25.8750   -9.5430    6.9130 C.ar    9  TRP9        0.0810
     16  CE3       25.0330   -9.8500    4.6580 C.ar    9  TRP9        0.0012
     17  CZ2       26.5240  -10.7790    6.8950 C.ar    9  TRP9        0.0191
     18  CZ3       25.6800  -11.0830    4.6340 C.ar    9  TRP9        0.0001
     19  CH2       26.4170  -11.5370    5.7550 C.ar    9  TRP9        0.0015
     20  N         22.4290   -5.2600    3.3620 N.am   10  ALA10      -0.1977
     21  CA        21.7240   -4.8790    2.1380 C.3    10  ALA10       0.1597
     22  C         22.1780   -3.4840    1.7470 C.2    10  ALA10       0.2287
     23  O         22.4130   -2.6520    2.6120 O.2    10  ALA10      -0.2864
     24  CB        20.2210   -4.9200    2.3510 C.3    10  ALA10       0.0319
     25  N         19.7590   -2.4550   -2.7930 N.3    18  CYS18      -0.1235
     26  CA        18.8320   -2.8940   -1.7500 C.3    18  CYS18       0.1677
     27  C         17.4190   -3.0500   -2.3050 C.2    18  CYS18       0.2270
     28  O         16.5110   -2.3530   -1.8840 O.2    18  CYS18      -0.2867
     29  CB        18.8410   -1.8960   -0.5870 C.3    18  CYS18       0.0956
     30  SG        17.7860   -2.3460    0.8070 S.3    18  CYS18      -0.0801
     31  N         14.7790    2.7840    5.2850 N.3    45  MET45      -0.1230
     32  CA        15.6400    1.6340    5.0120 C.3    45  MET45       0.1702
     33  C         16.8450    1.5630    5.9540 C.2    45  MET45       0.2592
     34  O         17.5550    2.5510    6.1560 O.2    45  MET45      -0.2718
     35  CB        16.1190    1.6470    3.5590 C.3    45  MET45       0.0401
     36  CG        16.6230    0.3040    3.0800 C.3    45  MET45       0.0596
     37  SD        15.3270   -0.9560    3.0990 S.3    45  MET45      -0.1393
     38  CE        14.5750   -0.6340    1.5120 C.3    45  MET45       0.0692
     39  N         17.0600    0.3890    6.5410 N.am   46  GLY46      -0.1957
     40  CA        18.1690    0.2190    7.4530 C.3    46  GLY46       0.1869
     41  C         17.6950   -0.1940    8.8300 C.2    46  GLY46       0.2309
     42  O         18.3850   -0.9350    9.5260 O.2    46  GLY46      -0.2863
     43  N         13.1160   -4.3850    9.8560 N.3    49  LYS49      -0.1245
     44  CA        12.0200   -4.4230    8.8980 C.3    49  LYS49       0.1561
     45  C         10.6490   -4.0550    9.4360 C.2    49  LYS49       0.2260
     46  O          9.9000   -3.3280    8.7700 O.2    49  LYS49      -0.2867
     47  CB        11.9850   -5.7700    8.1900 C.3    49  LYS49       0.0271
     48  CG        13.2700   -6.0790    7.4520 C.3    49  LYS49       0.0035
     49  CD        13.6980   -4.8990    6.5820 C.3    49  LYS49       0.0206
     50  CE        15.1080   -5.0890    6.0670 C.3    49  LYS49       0.1093
     51  NZ        15.5470   -3.9990    5.1730 N.3    49  LYS49      -0.1314
     52  N         26.3330   -5.0140   11.0350 N.3   121  THR121     -0.1203
     53  CA        25.0450   -4.8020   11.6830 C.3   121  THR121      0.1994
     54  C         24.0260   -4.9630   10.5670 C.2   121  THR121      0.2619
     55  O         24.4040   -4.9990    9.3950 O.2   121  THR121     -0.2717
     56  CB        24.9400   -3.4010   12.3190 C.3   121  THR121      0.1784
     57  OG1       25.1050   -2.3990   11.3120 O.3   121  THR121     -0.2211
     58  CG2       26.0240   -3.2190   13.3890 C.3   121  THR121      0.0376
     59  N         22.7440   -5.0170   10.9090 N.am  122  THR122     -0.1938
     60  CA        21.7310   -5.2430    9.8910 C.3   122  THR122      0.2028
     61  C         20.3290   -4.7140   10.1820 C.2   122  THR122      0.2643
     62  O         20.0160   -4.2950   11.3060 O.2   122  THR122     -0.2714
     63  CB        21.6140   -6.7530    9.6300 C.3   122  THR122      0.1808
     64  OG1       20.8460   -6.9890    8.4500 O.3   122  THR122     -0.2208
     65  CG2       20.9360   -7.4160   10.7910 C.3   122  THR122      0.0379
     66  N         19.5070   -4.7080    9.1350 N.am  123  GLY123     -0.1939
     67  CA        18.1230   -4.2940    9.2570 C.3   123  GLY123      0.2014
     68  C         17.2910   -5.5650    9.2690 C.2   123  GLY123      0.2638
     69  O         16.1620   -5.5850    9.7390 O.2   123  GLY123     -0.2714
     70  N         17.8780   -6.6350    8.7450 N.am  124  TYR124     -0.1973
     71  CA        17.2400   -7.9420    8.6720 C.3   124  TYR124      0.1639
     72  C         17.2490   -8.6230   10.0240 C.2   124  TYR124      0.2290
     73  O         18.1820   -8.4460   10.8090 O.2   124  TYR124     -0.2864
     74  CB        17.9860   -8.8460    7.6810 C.3   124  TYR124      0.0560
     75  CG        17.7540   -8.5320    6.2250 C.ar  124  TYR124     -0.0198
     76  CD1       16.4780   -8.2780    5.7430 C.ar  124  TYR124     -0.0009
     77  CD2       18.8160   -8.5090    5.3180 C.ar  124  TYR124     -0.0009
     78  CE1       16.2550   -8.0100    4.3950 C.ar  124  TYR124      0.0417
     79  CE2       18.6060   -8.2390    3.9680 C.ar  124  TYR124      0.0417
     80  CZ        17.3250   -7.9900    3.5130 C.ar  124  TYR124      0.1957
     81  OH        17.1050   -7.7110    2.1840 O.3   124  TYR124     -0.2866
     82  N         18.8610   -0.0520   14.4050 N.3   156  ARG156     -0.1245
     83  CA        19.2280    1.3210   14.0720 C.3   156  ARG156      0.1563
     84  C         18.0560    2.2360   14.3800 C.2   156  ARG156      0.2260
     85  O         16.9090    1.8090   14.3060 O.2   156  ARG156     -0.2867
     86  CB        19.5920    1.4330   12.5950 C.3   156  ARG156      0.0307
     87  CG        20.6300    0.4540   12.1750 C.3   156  ARG156      0.0489
     88  CD        21.1970    0.8010   10.8280 C.3   156  ARG156      0.2205
     89  NE        22.1870   -0.1940   10.4480 N.pl3 156  ARG156     -0.0865
     90  CZ        21.9540   -1.1300    9.5420 C.cat 156  ARG156      0.5346
     91  NH1       20.7770   -1.1640    8.9400 N.pl3 156  ARG156      0.1354
     92  NH2       22.8740   -2.0310    9.2450 N.pl3 156  ARG156      0.1354
     93  N         24.8010    2.4720    3.8590 N.3   182  ASP182     -0.1225
     94  CA        24.2500    3.0310    2.6350 C.3   182  ASP182      0.1805
     95  C         22.9040    3.7270    2.8060 C.2   182  ASP182      0.2598
     96  O         22.3070    4.1540    1.8250 O.2   182  ASP182     -0.2718
     97  CB        24.0730    1.9050    1.6220 C.3   182  ASP182      0.1424
     98  CG        23.0720    0.8650    2.0880 C.2   182  ASP182      0.3668
     99  OD1       23.3970    0.0950    3.0120 O.co2 182  ASP182     -0.2456
    100  OD2       21.9570    0.8320    1.5370 O.co2 182  ASP182     -0.2456
    101  N         22.3990    3.7770    4.0310 N.am  183  THR183     -0.1953
    102  CA        21.1210    4.4220    4.3010 C.3   183  THR183      0.1897
    103  C         21.3420    5.5380    5.3070 C.2   183  THR183      0.2313
    104  O         22.3850    5.6010    5.9680 O.2   183  THR183     -0.2863
    105  CB        20.1120    3.4430    4.9330 C.3   183  THR183      0.1794
    106  OG1       20.5350    3.1280    6.2630 O.3   183  THR183     -0.2208
    107  CG2       20.0160    2.1630    4.1360 C.3   183  THR183      0.0378
    108  N         22.0130    4.2070    8.6900 N.3   186  ASP186     -0.1239
    109  CA        23.3540    3.6470    8.8880 C.3   186  ASP186      0.1674
    110  C         24.2960    4.7420    9.3770 C.2   186  ASP186      0.2266
    111  O         25.2190    4.4840   10.1460 O.2   186  ASP186     -0.2867
    112  CB        23.9160    3.0630    7.5820 C.3   186  ASP186      0.1410
    113  CG        23.4100    1.6610    7.2920 C.2   186  ASP186      0.3668
    114  OD1       23.6170    0.7600    8.1320 O.co2 186  ASP186     -0.2456
    115  OD2       22.8450    1.4520    6.2030 O.co2 186  ASP186     -0.2456
@<TRIPOS>BOND
     1    25    26    1
     2    27    28    2
     3    27    26    1
     4    26    29    1
     5    29    30    1
     6    38    37    1
     7   100    98   ar
     8    97    98    1
     9    97    94    1
    10    22    21    1
    11    22    23    2
    12    96    95    2
    13    98    99   ar
    14    21    24    1
    15    21    20    1
    16    81    80    1
    17     9     8    2
    18    94    95    1
    19    94    93    1
    20    95   101   am
    21    36    37    1
    22    36    35    1
    23    20     8   am
    24     8     7    1
    25    80    79   ar
    26    80    78   ar
    27    35    32    1
    28    79    77   ar
    29   101   102    1
    30   107   105    1
    31   102   105    1
    32   102   103    1
    33    78    76   ar
    34    18    16   ar
    35    18    19   ar
    36    16    13   ar
    37     7    10    1
    38     7     6    1
    39   105   106    1
    40    32    31    1
    41    32    33    1
    42    51    50    1
    43   103   104    2
    44    77    75   ar
    45    10    11    1
    46     4     3    2
    47     6     3   am
    48    76    75   ar
    49    19    17   ar
    50    13    11   ar
    51    13    15   ar
    52     3     2    1
    53    33    34    2
    54    33    39   am
    55    50    49    1
    56    11    12   ar
    57   115   113   ar
    58    75    74    1
    59     5     2    1
    60    39    40    1
    61    49    48    1
    62     2     1    1
    63    17    15   ar
    64    15    14   ar
    65   113   112    1
    66   113   114   ar
    67    48    47    1
    68    40    41    1
    69    12    14   ar
    70   112   109    1
    71    74    71    1
    72    47    44    1
    73    64    63    1
    74    71    70    1
    75    71    72    1
    76   108   109    1
    77    70    68   am
    78    46    45    2
    79    41    42    2
    80   109   110    1
    81    44    45    1
    82    44    43    1
    83    91    90    1
    84    66    67    1
    85    66    61   am
    86    92    90    1
    87    67    68    1
    88    68    69    2
    89   110   111    2
    90    55    54    2
    91    90    89    2
    92    63    60    1
    93    63    65    1
    94    60    61    1
    95    60    59    1
    96    72    73    2
    97    61    62    2
    98    89    88    1
    99    54    59   am
   100    54    53    1
   101    88    87    1
   102    52    53    1
   103    57    56    1
   104    53    56    1
   105    87    86    1
   106    56    58    1
   107    86    83    1
   108    83    84    1
   109    83    82    1
   110    85    84    2
