@<TRIPOS>MOLECULE
tmp/1sx6A02.pdb
 192 185 0 0 0
SMALL
GASTEIGER

@<TRIPOS>ATOM
      1  N         -3.0270    5.1940   19.6390 N.3     1  LEU1       -0.1245
      2  CA        -2.1410    4.6300   18.5700 C.3     1  LEU1        0.1561
      3  C         -2.5320    5.1340   17.1820 C.2     1  LEU1        0.2260
      4  O         -1.6660    5.5480   16.3980 O.2     1  LEU1       -0.2867
      5  CB        -2.1660    3.1000   18.5850 C.3     1  LEU1        0.0270
      6  CG        -1.3770    2.3690   17.4850 C.3     1  LEU1        0.0019
      7  CD1        0.0760    2.8200   17.4330 C.3     1  LEU1        0.0001
      8  CD2       -1.4710    0.8670   17.6940 C.3     1  LEU1        0.0001
      9  N          5.9240    6.1690   19.9680 N.3    27  LEU27      -0.1245
     10  CA         6.0100    4.7120   20.1200 C.3    27  LEU27       0.1561
     11  C          6.7010    4.2430   21.4100 C.2    27  LEU27       0.2260
     12  O          6.1760    3.3560   22.0640 O.2    27  LEU27      -0.2867
     13  CB         6.6340    4.0340   18.8840 C.3    27  LEU27       0.0270
     14  CG         5.8920    4.2850   17.5580 C.3    27  LEU27       0.0019
     15  CD1        6.7090    3.8690   16.3390 C.3    27  LEU27       0.0001
     16  CD2        4.5440    3.5840   17.5420 C.3    27  LEU27       0.0001
     17  N          4.7460    3.3520   24.7810 N.3    30  PHE30      -0.1227
     18  CA         4.0440    2.0530   24.8120 C.3    30  PHE30       0.1736
     19  C          4.8410    0.9140   25.4980 C.2    30  PHE30       0.2595
     20  O          4.2570   -0.1050   25.8990 O.2    30  PHE30      -0.2718
     21  CB         3.6360    1.6060   23.3960 C.3    30  PHE30       0.0547
     22  CG         2.4890    2.3950   22.8100 C.ar   30  PHE30      -0.0202
     23  CD1        2.7250    3.4560   21.9380 C.ar   30  PHE30      -0.0042
     24  CD2        1.1730    2.0760   23.1300 C.ar   30  PHE30      -0.0042
     25  CE1        1.6690    4.1870   21.4010 C.ar   30  PHE30      -0.0003
     26  CE2        0.1040    2.8030   22.5930 C.ar   30  PHE30      -0.0003
     27  CZ         0.3540    3.8590   21.7280 C.ar   30  PHE30      -0.0000
     28  N          6.1590    1.0750   25.6220 N.am   31  PHE31      -0.1976
     29  CA         7.0030    0.0890   26.3020 C.3    31  PHE31       0.1639
     30  C          6.8610    0.0880   27.8200 C.2    31  PHE31       0.2290
     31  O          7.1230   -0.9260   28.4610 O.2    31  PHE31      -0.2864
     32  CB         8.4690    0.2850   25.9280 C.3    31  PHE31       0.0560
     33  CG         8.7870   -0.1940   24.5590 C.ar   31  PHE31      -0.0200
     34  CD1        8.8220   -1.5570   24.2850 C.ar   31  PHE31      -0.0042
     35  CD2        9.0150    0.7040   23.5310 C.ar   31  PHE31      -0.0042
     36  CE1        9.1050   -2.0100   23.0200 C.ar   31  PHE31      -0.0003
     37  CE2        9.2940    0.2540   22.2540 C.ar   31  PHE31      -0.0003
     38  CZ         9.3420   -1.1030   21.9970 C.ar   31  PHE31      -0.0000
     39  N          4.0680   -2.6190   28.9760 N.3    34  LEU34      -0.1245
     40  CA         4.1720   -4.0470   28.6580 C.3    34  LEU34       0.1561
     41  C          4.3580   -4.8510   29.9460 C.2    34  LEU34       0.2260
     42  O          4.3120   -6.0860   29.9210 O.2    34  LEU34      -0.2867
     43  CB         5.3410   -4.3180   27.7060 C.3    34  LEU34       0.0270
     44  CG         4.9810   -4.5140   26.2380 C.3    34  LEU34       0.0019
     45  CD1        4.3530   -3.2490   25.7020 C.3    34  LEU34       0.0001
     46  CD2        6.2210   -4.8840   25.4540 C.3    34  LEU34       0.0001
     47  N         11.9600   -4.1630   29.4490 N.3    39  PHE39      -0.1241
     48  CA        11.7540   -3.3170   28.2800 C.3    39  PHE39       0.1605
     49  C         12.3950   -1.9500   28.3830 C.2    39  PHE39       0.2264
     50  O         12.4340   -1.2220   27.4110 O.2    39  PHE39      -0.2867
     51  CB        10.2580   -3.1940   27.9910 C.3    39  PHE39       0.0534
     52  CG         9.6210   -4.5090   27.6900 C.ar   39  PHE39      -0.0203
     53  CD1        9.9230   -5.1740   26.5100 C.ar   39  PHE39      -0.0042
     54  CD2        8.7700   -5.1180   28.6050 C.ar   39  PHE39      -0.0042
     55  CE1        9.3770   -6.4130   26.2350 C.ar   39  PHE39      -0.0003
     56  CE2        8.2110   -6.3620   28.3320 C.ar   39  PHE39      -0.0003
     57  CZ         8.5150   -7.0100   27.1470 C.ar   39  PHE39      -0.0000
     58  N         15.2180   -1.4930   26.0120 N.3    42  ILE42      -0.1245
     59  CA        14.6470   -1.5470   24.6750 C.3    42  ILE42       0.1561
     60  C         14.1240   -0.1710   24.2800 C.2    42  ILE42       0.2260
     61  O         14.4220    0.3300   23.1930 O.2    42  ILE42      -0.2867
     62  CB        13.5300   -2.5920   24.6370 C.3    42  ILE42       0.0252
     63  CG1       14.1570   -3.9880   24.7720 C.3    42  ILE42       0.0019
     64  CG2       12.6980   -2.4640   23.3350 C.3    42  ILE42       0.0019
     65  CD1       13.1840   -5.1050   25.0170 C.3    42  ILE42       0.0001
     66  N         16.9600    2.2360   23.5550 N.3    45  ASP45      -0.1225
     67  CA        17.6670    2.1090   22.2930 C.3    45  ASP45       0.1805
     68  C         16.8890    2.8800   21.2140 C.2    45  ASP45       0.2597
     69  O         17.4810    3.6390   20.4290 O.2    45  ASP45      -0.2718
     70  CB        17.8500    0.6420   21.9020 C.3    45  ASP45       0.1424
     71  CG        18.4840    0.4960   20.5240 C.2    45  ASP45       0.3668
     72  OD1       19.7170    0.3360   20.4460 O.co2  45  ASP45      -0.2456
     73  OD2       17.8170    0.5890   19.4690 O.co2  45  ASP45      -0.2456
     74  N         15.5740    2.7010   21.1940 N.am   46  ILE46      -0.1980
     75  CA        14.7300    3.3160   20.1850 C.3    46  ILE46       0.1595
     76  C         14.7030    4.8220   20.3910 C.2    46  ILE46       0.2287
     77  O         14.9680    5.5860   19.4800 O.2    46  ILE46      -0.2864
     78  CB        13.3040    2.7220   20.2090 C.3    46  ILE46       0.0276
     79  CG1       13.3700    1.2160   19.8830 C.3    46  ILE46       0.0022
     80  CG2       12.4120    3.4550   19.2180 C.3    46  ILE46       0.0022
     81  CD1       12.0790    0.4980   19.8030 C.3    46  ILE46       0.0001
     82  N         19.7000    1.6290   12.8000 N.3    93  TRP93      -0.1241
     83  CA        19.2030    0.8500   13.9120 C.3    93  TRP93       0.1605
     84  C         17.7540    1.1740   14.2900 C.2    93  TRP93       0.2264
     85  O         17.0240    0.2870   14.7350 O.2    93  TRP93      -0.2867
     86  CB        20.1380    1.0050   15.1100 C.3    93  TRP93       0.0550
     87  CG        21.3960    0.2550   14.9060 C.ar   93  TRP93       0.0003
     88  CD1       22.5590    0.7430   14.4460 C.ar   93  TRP93       0.0946
     89  CD2       21.5930   -1.1490   15.0960 C.ar   93  TRP93       0.0152
     90  NE1       23.4870   -0.2620   14.3580 N.ar   93  TRP93      -0.2442
     91  CE2       22.9190   -1.4320   14.7690 C.ar   93  TRP93       0.0810
     92  CE3       20.7790   -2.1940   15.5410 C.ar   93  TRP93       0.0012
     93  CZ2       23.4560   -2.7130   14.8600 C.ar   93  TRP93       0.0191
     94  CZ3       21.3110   -3.4590   15.6400 C.ar   93  TRP93       0.0001
     95  CH2       22.6310   -3.7110   15.3010 C.ar   93  TRP93       0.0015
     96  N         14.4040   -1.4380   14.6600 N.3    97  GLY97      -0.1225
     97  CA        13.4720   -1.3200   15.7640 C.3    97  GLY97       0.1811
     98  C         12.0340   -1.1440   15.3350 C.2    97  GLY97       0.2280
     99  O         11.1500   -1.8530   15.8210 O.2    97  GLY97      -0.2866
    100  N         10.7420   -4.2140   13.5660 N.3   100  PHE100     -0.1227
    101  CA        10.3720   -5.2360   14.5300 C.3   100  PHE100      0.1736
    102  C          8.9430   -4.9910   15.0250 C.2   100  PHE100      0.2595
    103  O          8.1630   -5.9220   15.1170 O.2   100  PHE100     -0.2718
    104  CB        11.3320   -5.2920   15.7110 C.3   100  PHE100      0.0547
    105  CG        10.8790   -6.2350   16.7900 C.ar  100  PHE100     -0.0202
    106  CD1       11.4250   -7.4890   16.8800 C.ar  100  PHE100     -0.0042
    107  CD2        9.8640   -5.8670   17.6820 C.ar  100  PHE100     -0.0042
    108  CE1       11.0030   -8.3770   17.8590 C.ar  100  PHE100     -0.0003
    109  CE2        9.4240   -6.7460   18.6550 C.ar  100  PHE100     -0.0003
    110  CZ         9.9970   -8.0160   18.7480 C.ar  100  PHE100     -0.0000
    111  N          8.6160   -3.7440   15.3510 N.am  101  ILE101     -0.1980
    112  CA         7.2760   -3.3830   15.8090 C.3   101  ILE101      0.1595
    113  C          6.2500   -3.6700   14.7020 C.2   101  ILE101      0.2287
    114  O          5.1570   -4.1990   14.9580 O.2   101  ILE101     -0.2864
    115  CB         7.2560   -1.9050   16.2340 C.3   101  ILE101      0.0276
    116  CG1        8.1020   -1.7320   17.5000 C.3   101  ILE101      0.0022
    117  CG2        5.8170   -1.3960   16.4490 C.3   101  ILE101      0.0022
    118  CD1        8.3380   -0.3140   17.9030 C.3   101  ILE101      0.0001
    119  N          5.8130   -7.5940   14.3060 N.3   104  PHE104     -0.1227
    120  CA         5.1140   -8.0520   15.4900 C.3   104  PHE104      0.1736
    121  C          3.6110   -7.7410   15.4170 C.2   104  PHE104      0.2595
    122  O          2.7530   -8.6210   15.5730 O.2   104  PHE104     -0.2718
    123  CB         5.7320   -7.3910   16.7040 C.3   104  PHE104      0.0547
    124  CG         5.0740   -7.7510   17.9890 C.ar  104  PHE104     -0.0202
    125  CD1        5.1130   -9.0590   18.4540 C.ar  104  PHE104     -0.0042
    126  CD2        4.4050   -6.7880   18.7380 C.ar  104  PHE104     -0.0042
    127  CE1        4.5150   -9.4120   19.6490 C.ar  104  PHE104     -0.0003
    128  CE2        3.8060   -7.1340   19.9340 C.ar  104  PHE104     -0.0003
    129  CZ         3.8570   -8.4610   20.3850 C.ar  104  PHE104     -0.0000
    130  N          3.2870   -6.4830   15.1770 N.am  105  LEU105     -0.1980
    131  CA         1.9000   -6.0890   15.1320 C.3   105  LEU105      0.1596
    132  C          1.1430   -6.7520   13.9800 C.2   105  LEU105      0.2287
    133  O         -0.0040   -7.1300   14.1590 O.2   105  LEU105     -0.2864
    134  CB         1.7480   -4.5650   15.0890 C.3   105  LEU105      0.0297
    135  CG         2.2280   -3.8130   16.3320 C.3   105  LEU105      0.0022
    136  CD1        2.1020   -2.2870   16.1000 C.3   105  LEU105      0.0001
    137  CD2        1.4740   -4.2310   17.5850 C.3   105  LEU105      0.0001
    138  N         15.7560   -8.2120   13.4180 N.3   133  LEU133     -0.1245
    139  CA        16.8840   -7.9930   14.3020 C.3   133  LEU133      0.1561
    140  C         17.9480   -9.0750   14.3610 C.2   133  LEU133      0.2260
    141  O         19.1140   -8.7430   14.4820 O.2   133  LEU133     -0.2867
    142  CB        16.3760   -7.7810   15.7240 C.3   133  LEU133      0.0270
    143  CG        15.6080   -6.4990   16.0230 C.3   133  LEU133      0.0019
    144  CD1       15.0890   -6.5760   17.4430 C.3   133  LEU133      0.0001
    145  CD2       16.4760   -5.2750   15.8610 C.3   133  LEU133      0.0001
    146  N         22.5310   -9.6820   15.4880 N.3   137  HIS137     -0.1241
    147  CA        22.8640   -9.9850   16.8660 C.3   137  HIS137      0.1621
    148  C         23.7900  -11.1980   16.9540 C.2   137  HIS137      0.2264
    149  O         23.5250  -12.2280   16.3340 O.2   137  HIS137     -0.2867
    150  CB        21.5930  -10.2660   17.6590 C.3   137  HIS137      0.0745
    151  CG        20.7680   -9.0460   17.9130 C.ar  137  HIS137      0.0817
    152  ND1       19.6800   -9.0470   18.7600 N.ar  137  HIS137     -0.2268
    153  CD2       20.8840   -7.7800   17.4440 C.ar  137  HIS137      0.1154
    154  CE1       19.1660   -7.8310   18.8100 C.ar  137  HIS137      0.1986
    155  NE2       19.8760   -7.0440   18.0180 N.ar  137  HIS137     -0.2212
    156  N         -2.0510   -7.4750   26.4020 N.3   158  PHE158     -0.1241
    157  CA        -1.2670   -6.5610   25.5760 C.3   158  PHE158      0.1605
    158  C         -2.1980   -5.6440   24.8000 C.2   158  PHE158      0.2264
    159  O         -1.9330   -4.4470   24.6720 O.2   158  PHE158     -0.2867
    160  CB        -0.3980   -7.3650   24.5990 C.3   158  PHE158      0.0534
    161  CG         0.3250   -6.5200   23.5900 C.ar  158  PHE158     -0.0203
    162  CD1        1.3380   -5.6550   23.9900 C.ar  158  PHE158     -0.0042
    163  CD2       -0.0070   -6.5870   22.2420 C.ar  158  PHE158     -0.0042
    164  CE1        2.0090   -4.8640   23.0640 C.ar  158  PHE158     -0.0003
    165  CE2        0.6580   -5.8030   21.3090 C.ar  158  PHE158     -0.0003
    166  CZ         1.6690   -4.9380   21.7210 C.ar  158  PHE158     -0.0000
    167  N         -3.0720   -1.5530   25.1250 N.3   162  LEU162     -0.1245
    168  CA        -3.0660   -0.5790   24.0420 C.3   162  LEU162      0.1561
    169  C         -4.3580    0.2450   24.0270 C.2   162  LEU162      0.2260
    170  O         -4.3640    1.3680   23.5370 O.2   162  LEU162     -0.2867
    171  CB        -2.8670   -1.2820   22.6940 C.3   162  LEU162      0.0270
    172  CG        -1.4820   -1.8720   22.4250 C.3   162  LEU162      0.0019
    173  CD1       -1.5250   -2.8200   21.2400 C.3   162  LEU162      0.0001
    174  CD2       -0.4720   -0.7770   22.1780 C.3   162  LEU162      0.0001
    175  N         -3.2900    1.8390   11.6270 N.3   179  PHE179     -0.1241
    176  CA        -1.9630    2.3450   11.9170 C.3   179  PHE179      0.1605
    177  C         -0.8630    1.7590   11.0190 C.2   179  PHE179      0.2264
    178  O          0.0170    2.4730   10.5730 O.2   179  PHE179     -0.2867
    179  CB        -1.6130    2.0470   13.3760 C.3   179  PHE179      0.0534
    180  CG        -0.1840    2.3460   13.7270 C.ar  179  PHE179     -0.0203
    181  CD1        0.2270    3.6480   13.9490 C.ar  179  PHE179     -0.0042
    182  CD2        0.7520    1.3280   13.8280 C.ar  179  PHE179     -0.0042
    183  CE1        1.5510    3.9320   14.2680 C.ar  179  PHE179     -0.0003
    184  CE2        2.0780    1.6150   14.1470 C.ar  179  PHE179     -0.0003
    185  CZ         2.4750    2.9110   14.3650 C.ar  179  PHE179     -0.0000
    186  N         26.3350   -7.2610   16.8060 N.3   205  VAL205     -0.1245
    187  CA        26.6520   -6.7070   18.1150 C.3   205  VAL205      0.1561
    188  C         26.5900   -7.7660   19.2140 C.2   205  VAL205      0.2260
    189  O         25.8840   -8.7740   19.1700 O.2   205  VAL205     -0.2867
    190  CB        25.7190   -5.5210   18.5060 C.3   205  VAL205      0.0252
    191  CG1       25.8590   -4.3750   17.5060 C.3   205  VAL205      0.0019
    192  CG2       24.2710   -5.9580   18.6280 C.3   205  VAL205      0.0019
@<TRIPOS>BOND
     1   178   177    2
     2   177   176    1
     3   175   176    1
     4   176   179    1
     5    82    83    1
     6   179   180    1
     7   138   139    1
     8   100   101    1
     9   180   182   ar
    10   180   181   ar
    11   182   184   ar
    12    83    84    1
    13    83    86    1
    14   181   183   ar
    15   132   133    2
    16   132   131    1
    17   184   185   ar
    18   183   185   ar
    19    84    85    2
    20   139   140    1
    21   139   142    1
    22   119   120    1
    23    90    88   ar
    24    90    91   ar
    25   140   141    2
    26    88    87   ar
    27   101   102    1
    28   101   104    1
    29    96    97    1
    30   113   114    2
    31   113   112    1
    32    91    93   ar
    33    91    89   ar
    34    93    95   ar
    35    87    89   ar
    36    87    86    1
    37   102   103    2
    38   102   111   am
    39   134   131    1
    40   134   135    1
    41    89    92   ar
    42   131   130    1
    43   130   121   am
    44    95    94   ar
    45    98    97    1
    46    98    99    2
    47   111   112    1
    48   121   120    1
    49   121   122    2
    50   146   147    1
    51   120   123    1
    52    92    94   ar
    53   104   105    1
    54   142   143    1
    55   112   115    1
    56   145   143    1
    57   143   144    1
    58   136   135    1
    59   115   117    1
    60   115   116    1
    61   135   137    1
    62   149   148    2
    63    15    14    1
    64     4     3    2
    65   123   124    1
    66   105   106   ar
    67   105   107   ar
    68   186   187    1
    69   147   148    1
    70   147   150    1
    71   106   108   ar
    72     3     2    1
    73     7     6    1
    74   153   151   ar
    75   153   155   ar
    76     6     8    1
    77     6     5    1
    78   116   118    1
    79   191   190    1
    80    16    14    1
    81    14    13    1
    82   150   151    1
    83   107   109   ar
    84   108   110   ar
    85   151   152   ar
    86   124   125   ar
    87   124   126   ar
    88   155   154   ar
    89   187   190    1
    90   187   188    1
    91   125   127   ar
    92   190   192    1
    93     2     5    1
    94     2     1    1
    95   109   110   ar
    96   126   128   ar
    97   152   154   ar
    98    13    10    1
    99   189   188    2
   100    80    78    1
   101    73    71   ar
   102    77    76    2
   103   127   129   ar
   104    81    79    1
   105    79    78    1
   106   128   129   ar
   107     9    10    1
   108    10    11    1
   109    75    78    1
   110    75    76    1
   111    75    74    1
   112    69    68    2
   113    72    71   ar
   114    71    70    1
   115    74    68   am
   116    68    67    1
   117   173   172    1
   118   165   166   ar
   119   165   163   ar
   120    25    27   ar
   121    25    23   ar
   122    11    12    2
   123   166   164   ar
   124    27    26   ar
   125    70    67    1
   126    23    22   ar
   127    38    37   ar
   128    38    36   ar
   129   174   172    1
   130   163   161   ar
   131    37    35   ar
   132    67    66    1
   133   172   171    1
   134    26    24   ar
   135   171   168    1
   136    22    24   ar
   137    22    21    1
   138    36    34   ar
   139   164   162   ar
   140    61    60    2
   141    64    62    1
   142    21    18    1
   143    35    33   ar
   144   170   169    2
   145   161   162   ar
   146   161   160    1
   147   169   168    1
   148   168   167    1
   149    60    59    1
   150    34    33   ar
   151    33    32    1
   152   160   157    1
   153    62    59    1
   154    62    63    1
   155   159   158    2
   156    59    58    1
   157    63    65    1
   158    17    18    1
   159   158   157    1
   160    18    19    1
   161    46    44    1
   162    19    28   am
   163    19    20    2
   164   157   156    1
   165    28    29    1
   166    45    44    1
   167    32    29    1
   168    55    53   ar
   169    55    57   ar
   170    44    43    1
   171    29    30    1
   172    53    52   ar
   173    57    56   ar
   174    50    49    2
   175    52    51    1
   176    52    54   ar
   177    43    40    1
   178    30    31    2
   179    51    48    1
   180    48    49    1
   181    48    47    1
   182    56    54   ar
   183    40    39    1
   184    40    41    1
   185    42    41    2
