@<TRIPOS>MOLECULE
tmp/1sx6A03.pdb
 71 66 0 0 0
SMALL
GASTEIGER

@<TRIPOS>ATOM
      1  N         11.2750   16.0440   10.2550 N.3    18  GLY18      -0.1225
      2  CA        10.6140   16.5510   11.4520 C.3    18  GLY18       0.1811
      3  C          9.3340   15.8440   11.8170 C.2    18  GLY18       0.2280
      4  O          9.2250   15.3410   12.9170 O.2    18  GLY18      -0.2866
      5  N          9.9770   12.1820   12.8730 N.3    21  LEU21      -0.1231
      6  CA        10.4970   12.0190   14.2310 C.3    21  LEU21       0.1693
      7  C          9.4310   12.2690   15.2810 C.2    21  LEU21       0.2591
      8  O          9.3930   11.5850   16.3090 O.2    21  LEU21      -0.2718
      9  CB        11.6880   12.9340   14.4660 C.3    21  LEU21       0.0284
     10  CG        12.8960   12.6160   13.5750 C.3    21  LEU21       0.0019
     11  CD1       13.9570   13.6840   13.7680 C.3    21  LEU21       0.0001
     12  CD2       13.4610   11.2250   13.8780 C.3    21  LEU21       0.0001
     13  N          8.5680   13.2400   15.0170 N.am   22  GLU22      -0.1979
     14  CA         7.4620   13.5510   15.9170 C.3    22  GLU22       0.1602
     15  C          6.5470   12.3460   16.0160 C.2    22  GLU22       0.2287
     16  O          6.0860   11.9880   17.1050 O.2    22  GLU22      -0.2864
     17  CB         6.6780   14.7490   15.4030 C.3    22  GLU22       0.0415
     18  CG         5.8390   15.4710   16.4530 C.3    22  GLU22       0.1163
     19  CD         4.5620   14.7360   16.8480 C.2    22  GLU22       0.3649
     20  OE1        3.8590   14.2100   15.9470 O.co2  22  GLU22      -0.2457
     21  OE2        4.2460   14.6890   18.0710 O.co2  22  GLU22      -0.2457
     22  N          8.1590    9.3080   17.8120 N.3    25  SER25      -0.1217
     23  CA         8.4050    9.6040   19.2170 C.3    25  SER25       0.1889
     24  C          7.2530    9.1170   20.1570 C.2    25  SER25       0.2288
     25  O          7.4450    8.9670   21.3700 O.2    25  SER25      -0.2866
     26  CB         8.6520   11.0930   19.3870 C.3    25  SER25       0.2089
     27  OG         7.4450   11.8080   19.2340 O.3    25  SER25      -0.2183
     28  N          7.8480    4.8170   21.7830 N.3    28  PRO28      -0.2103
     29  CA         8.5670    4.3920   22.9930 C.3    28  PRO28       0.1489
     30  C          7.7480    4.3040   24.2910 C.2    28  PRO28       0.2417
     31  O          7.9530    3.3360   25.0330 O.2    28  PRO28      -0.2734
     32  CB         9.6900    5.4340   23.1180 C.3    28  PRO28       0.0282
     33  CG         9.9490    5.8590   21.7270 C.3    28  PRO28       0.0208
     34  CD         8.5970    5.8640   21.0690 C.3    28  PRO28       0.0893
     35  N          6.8840    5.2760   24.5920 N.am   29  PRO29      -0.2729
     36  CA         6.0560    5.1960   25.8040 C.3    29  PRO29       0.1401
     37  C          5.1480    3.9560   25.8970 C.2    29  PRO29       0.2269
     38  O          4.8460    3.5580   27.0090 O.2    29  PRO29      -0.2865
     39  CB         5.2370    6.4910   25.7490 C.3    29  PRO29       0.0296
     40  CG         6.0640    7.4160   24.9370 C.3    29  PRO29       0.0237
     41  CD         6.6410    6.5370   23.8680 C.3    29  PRO29       0.0939
     42  N         14.3770    5.2230   21.6130 N.3    47  SER47      -0.1217
     43  CA        14.4100    6.6140   21.9940 C.3    47  SER47       0.1889
     44  C         15.7160    7.2600   21.6880 C.2    47  SER47       0.2288
     45  O         15.7440    8.3330   21.1360 O.2    47  SER47      -0.2866
     46  CB        14.1970    6.7630   23.5000 C.3    47  SER47       0.2089
     47  OG        12.8950    7.1760   23.6810 O.3    47  SER47      -0.2183
     48  N         16.1380    7.9820   18.0420 N.3    50  ILE50      -0.1231
     49  CA        15.2620    9.0950   17.6600 C.3    50  ILE50       0.1692
     50  C         15.8770   10.4480   18.0700 C.2    50  ILE50       0.2592
     51  O         15.8720   11.4140   17.2910 O.2    50  ILE50      -0.2718
     52  CB        13.8120    8.9100   18.2900 C.3    50  ILE50       0.0266
     53  CG1       13.0760    7.7110   17.6770 C.3    50  ILE50       0.0019
     54  CG2       12.9520   10.1570   18.0990 C.3    50  ILE50       0.0020
     55  CD1       11.8070    7.2670   18.4660 C.3    50  ILE50       0.0001
     56  N         16.3760   10.5040   19.3030 N.am   51  THR51      -0.1953
     57  CA        17.0500   11.6760   19.8640 C.3    51  THR51       0.1897
     58  C         18.3120   12.0560   19.0790 C.2    51  THR51       0.2313
     59  O         18.5560   13.2380   18.8190 O.2    51  THR51      -0.2863
     60  CB        17.4000   11.3640   21.3520 C.3    51  THR51       0.1794
     61  OG1       16.1980   11.3900   22.1350 O.3    51  THR51      -0.2208
     62  CG2       18.3200   12.4070   21.9900 C.3    51  THR51       0.0378
     63  N         17.0960   13.5020   15.7110 N.3    54  LYS54      -0.1245
     64  CA        16.5740   14.8380   16.0420 C.3    54  LYS54       0.1561
     65  C         17.6920   15.8600   16.2240 C.2    54  LYS54       0.2260
     66  O         17.5880   16.9890   15.7380 O.2    54  LYS54      -0.2867
     67  CB        15.6910   14.7800   17.3070 C.3    54  LYS54       0.0271
     68  CG        15.0760   16.1120   17.7830 C.3    54  LYS54       0.0035
     69  CD        14.1930   16.7770   16.7160 C.3    54  LYS54       0.0206
     70  CE        13.3130   17.9690   17.2650 C.3    54  LYS54       0.1093
     71  NZ        13.5370   18.2570   18.7280 N.3    54  LYS54      -0.1314
@<TRIPOS>BOND
     1     1     2    1
     2     2     3    1
     3     3     4    2
     4     5     6    1
     5    10    11    1
     6    10    12    1
     7    10     9    1
     8     6     9    1
     9     6     7    1
    10    13     7   am
    11    13    14    1
    12     7     8    2
    13    17    14    1
    14    17    18    1
    15    63    64    1
    16    66    65    2
    17    14    15    1
    18    20    19   ar
    19    15    16    2
    20    64    65    1
    21    64    67    1
    22    18    19    1
    23    69    70    1
    24    69    68    1
    25    19    21   ar
    26    70    71    1
    27    51    50    2
    28    67    68    1
    29    49    48    1
    30    49    50    1
    31    49    52    1
    32    53    52    1
    33    53    55    1
    34    22    23    1
    35    50    56   am
    36    54    52    1
    37    59    58    2
    38    58    57    1
    39    23    26    1
    40    23    24    1
    41    27    26    1
    42    56    57    1
    43    57    60    1
    44    24    25    2
    45    34    33    1
    46    34    28    1
    47    45    44    2
    48    60    62    1
    49    60    61    1
    50    42    43    1
    51    44    43    1
    52    33    32    1
    53    28    29    1
    54    43    46    1
    55    29    32    1
    56    29    30    1
    57    46    47    1
    58    41    35    1
    59    41    40    1
    60    30    35   am
    61    30    31    2
    62    35    36    1
    63    40    39    1
    64    39    36    1
    65    36    37    1
    66    37    38    2
