@<TRIPOS>MOLECULE
tmp/1sx6A00.pdb
 84 78 0 0 0
SMALL
GASTEIGER

@<TRIPOS>ATOM
      1  N         16.9600    2.2360   23.5550 N.3    45  ASP45      -0.1239
      2  CA        17.6670    2.1090   22.2930 C.3    45  ASP45       0.1674
      3  C         16.8890    2.8800   21.2140 C.2    45  ASP45       0.2266
      4  O         17.4810    3.6390   20.4290 O.2    45  ASP45      -0.2867
      5  CB        17.8500    0.6420   21.9020 C.3    45  ASP45       0.1410
      6  CG        18.4840    0.4960   20.5240 C.2    45  ASP45       0.3668
      7  OD1       19.7170    0.3360   20.4460 O.co2  45  ASP45      -0.2456
      8  OD2       17.8170    0.5890   19.4690 O.co2  45  ASP45      -0.2456
      9  N         17.9940    6.5140   19.5890 N.3    49  ASN49      -0.1240
     10  CA        18.2140    6.7160   18.1580 C.3    49  ASN49       0.1653
     11  C         17.3910    7.8670   17.6010 C.2    49  ASN49       0.2266
     12  O         17.9120    8.6680   16.8330 O.2    49  ASN49      -0.2867
     13  CB        17.9880    5.4120   17.4040 C.3    49  ASN49       0.1155
     14  CG        19.1680    4.4730   17.5490 C.2    49  ASN49       0.2627
     15  OD1       20.3180    4.9120   17.5240 O.2    49  ASN49      -0.2716
     16  ND2       18.8980    3.1850   17.7220 N.am   49  ASN49      -0.0877
     17  N         19.0890   11.0450   18.6810 N.3    52  LYS52      -0.1245
     18  CA        20.3070   11.2470   17.9050 C.3    52  LYS52       0.1561
     19  C         20.0040   11.8160   16.5140 C.2    52  LYS52       0.2260
     20  O         20.7030   12.7290   16.0580 O.2    52  LYS52      -0.2867
     21  CB        21.1370    9.9450   17.8140 C.3    52  LYS52       0.0271
     22  CG        21.9620    9.6750   19.0960 C.3    52  LYS52       0.0035
     23  CD        22.1710    8.1820   19.4450 C.3    52  LYS52       0.0206
     24  CE        22.8950    7.9890   20.8030 C.3    52  LYS52       0.1093
     25  NZ        23.1840    6.5580   21.1270 N.3    52  LYS52      -0.1314
     26  N         28.6720    4.2070    8.7770 N.3    84  LYS84      -0.1245
     27  CA        28.7920    3.8910   10.1990 C.3    84  LYS84       0.1561
     28  C         29.0350    5.1370   11.0670 C.2    84  LYS84       0.2260
     29  O         29.9410    5.1590   11.9000 O.2    84  LYS84      -0.2867
     30  CB        29.8850    2.8420   10.4230 C.3    84  LYS84       0.0271
     31  CG        29.6000    1.9040   11.6320 C.3    84  LYS84       0.0035
     32  CD        30.7500    0.9110   11.8800 C.3    84  LYS84       0.0206
     33  CE        30.4400   -0.0240   13.0370 C.3    84  LYS84       0.1093
     34  NZ        31.1830   -1.3030   12.9110 N.3    84  LYS84      -0.1314
     35  N         26.9550    9.0890   12.6070 N.3    86  GLY86      -0.1225
     36  CA        25.9380   10.1260   12.6690 C.3    86  GLY86       0.1811
     37  C         24.4920    9.6600   12.7230 C.2    86  GLY86       0.2280
     38  O         24.1870    8.6330   13.3060 O.2    86  GLY86      -0.2866
     39  N         23.6480    6.2130   10.9460 N.3    89  LEU89      -0.1231
     40  CA        23.8060    5.0110   11.7450 C.3    89  LEU89       0.1693
     41  C         22.6670    4.8650   12.7490 C.2    89  LEU89       0.2591
     42  O         22.1170    3.7730   12.9270 O.2    89  LEU89      -0.2718
     43  CB        25.1440    5.0140   12.4570 C.3    89  LEU89       0.0284
     44  CG        25.5000    3.7770   13.2780 C.3    89  LEU89       0.0019
     45  CD1       25.3410    2.4820   12.4640 C.3    89  LEU89       0.0001
     46  CD2       26.9150    3.9400   13.7740 C.3    89  LEU89       0.0001
     47  N         22.3130    5.9660   13.4070 N.am   90  ALA90      -0.1980
     48  CA        21.1560    5.9630   14.3010 C.3    90  ALA90       0.1597
     49  C         19.9130    5.4340   13.5880 C.2    90  ALA90       0.2287
     50  O         19.2160    4.5670   14.1240 O.2    90  ALA90      -0.2864
     51  CB        20.8830    7.3620   14.8430 C.3    90  ALA90       0.0319
     52  N         19.7000    1.6290   12.8000 N.3    93  TRP93      -0.1241
     53  CA        19.2030    0.8500   13.9120 C.3    93  TRP93       0.1605
     54  C         17.7540    1.1740   14.2900 C.2    93  TRP93       0.2264
     55  O         17.0240    0.2870   14.7350 O.2    93  TRP93      -0.2867
     56  CB        20.1380    1.0050   15.1100 C.3    93  TRP93       0.0550
     57  CG        21.3960    0.2550   14.9060 C.ar   93  TRP93       0.0003
     58  CD1       22.5590    0.7430   14.4460 C.ar   93  TRP93       0.0946
     59  CD2       21.5930   -1.1490   15.0960 C.ar   93  TRP93       0.0152
     60  NE1       23.4870   -0.2620   14.3580 N.ar   93  TRP93      -0.2442
     61  CE2       22.9190   -1.4320   14.7690 C.ar   93  TRP93       0.0810
     62  CE3       20.7790   -2.1940   15.5410 C.ar   93  TRP93       0.0012
     63  CZ2       23.4560   -2.7130   14.8600 C.ar   93  TRP93       0.0191
     64  CZ3       21.3110   -3.4590   15.6400 C.ar   93  TRP93       0.0001
     65  CH2       22.6310   -3.7110   15.3010 C.ar   93  TRP93       0.0015
     66  N         27.0890   -5.6520   10.1810 N.3   203  TYR203     -0.1241
     67  CA        27.8390   -6.0390   11.3690 C.3   203  TYR203      0.1605
     68  C         26.9050   -6.4570   12.5150 C.2   203  TYR203      0.2264
     69  O         25.7760   -5.9620   12.6380 O.2   203  TYR203     -0.2867
     70  CB        28.8000   -4.9270   11.8050 C.3   203  TYR203      0.0534
     71  CG        28.1500   -3.7490   12.4970 C.ar  203  TYR203     -0.0201
     72  CD1       28.0360   -3.7020   13.8780 C.ar  203  TYR203     -0.0009
     73  CD2       27.6660   -2.6680   11.7670 C.ar  203  TYR203     -0.0009
     74  CE1       27.4430   -2.6100   14.5210 C.ar  203  TYR203      0.0417
     75  CE2       27.0590   -1.5690   12.4060 C.ar  203  TYR203      0.0417
     76  CZ        26.9490   -1.5500   13.7820 C.ar  203  TYR203      0.1957
     77  OH        26.3620   -0.4630   14.4230 O.3   203  TYR203     -0.2866
     78  N         26.3350   -7.2610   16.8060 N.3   205  VAL205     -0.1245
     79  CA        26.6520   -6.7070   18.1150 C.3   205  VAL205      0.1561
     80  C         26.5900   -7.7660   19.2140 C.2   205  VAL205      0.2260
     81  O         25.8840   -8.7740   19.1700 O.2   205  VAL205     -0.2867
     82  CB        25.7190   -5.5210   18.5060 C.3   205  VAL205      0.0252
     83  CG1       25.8590   -4.3750   17.5060 C.3   205  VAL205      0.0019
     84  CG2       24.2710   -5.9580   18.6280 C.3   205  VAL205      0.0019
@<TRIPOS>BOND
     1    26    27    1
     2    66    67    1
     3    27    30    1
     4    27    28    1
     5    30    31    1
     6    39    40    1
     7    28    29    2
     8    67    70    1
     9    67    68    1
    10    31    32    1
    11    40    43    1
    12    40    41    1
    13    73    75   ar
    14    73    71   ar
    15    70    71    1
    16    32    33    1
    17    75    76   ar
    18    43    44    1
    19    45    44    1
    20    71    72   ar
    21    68    69    2
    22    35    36    1
    23    36    37    1
    24    37    38    2
    25    41    42    2
    26    41    47   am
    27    52    53    1
    28    34    33    1
    29    44    46    1
    30    47    48    1
    31    49    50    2
    32    49    48    1
    33    76    77    1
    34    76    74   ar
    35    72    74   ar
    36    53    54    1
    37    53    56    1
    38    54    55    2
    39    48    51    1
    40    60    58   ar
    41    60    61   ar
    42    58    57   ar
    43    61    63   ar
    44    61    59   ar
    45    63    65   ar
    46    57    59   ar
    47    57    56    1
    48    59    62   ar
    49    65    64   ar
    50    62    64   ar
    51    20    19    2
    52    19    18    1
    53    78    79    1
    54    12    11    2
    55    13    14    1
    56    13    10    1
    57    83    82    1
    58    15    14    2
    59    14    16   am
    60    11    10    1
    61    21    18    1
    62    21    22    1
    63    18    17    1
    64    79    82    1
    65    79    80    1
    66    10     9    1
    67    82    84    1
    68    22    23    1
    69    81    80    2
    70    23    24    1
    71     8     6   ar
    72     4     3    2
    73     7     6   ar
    74     6     5    1
    75    24    25    1
    76     3     2    1
    77     5     2    1
    78     2     1    1
