@<TRIPOS>MOLECULE
tmp/1sx6A01.pdb
 201 194 0 0 0
SMALL
GASTEIGER

@<TRIPOS>ATOM
      1  N          6.1590    1.0750   25.6220 N.3    31  PHE31      -0.1241
      2  CA         7.0030    0.0890   26.3020 C.3    31  PHE31       0.1605
      3  C          6.8610    0.0880   27.8200 C.2    31  PHE31       0.2264
      4  O          7.1230   -0.9260   28.4610 O.2    31  PHE31      -0.2867
      5  CB         8.4690    0.2850   25.9280 C.3    31  PHE31       0.0534
      6  CG         8.7870   -0.1940   24.5590 C.ar   31  PHE31      -0.0203
      7  CD1        8.8220   -1.5570   24.2850 C.ar   31  PHE31      -0.0042
      8  CD2        9.0150    0.7040   23.5310 C.ar   31  PHE31      -0.0042
      9  CE1        9.1050   -2.0100   23.0200 C.ar   31  PHE31      -0.0003
     10  CE2        9.2940    0.2540   22.2540 C.ar   31  PHE31      -0.0003
     11  CZ         9.3420   -1.1030   21.9970 C.ar   31  PHE31      -0.0000
     12  N          4.0680   -2.6190   28.9760 N.3    34  LEU34      -0.1245
     13  CA         4.1720   -4.0470   28.6580 C.3    34  LEU34       0.1561
     14  C          4.3580   -4.8510   29.9460 C.2    34  LEU34       0.2260
     15  O          4.3120   -6.0860   29.9210 O.2    34  LEU34      -0.2867
     16  CB         5.3410   -4.3180   27.7060 C.3    34  LEU34       0.0270
     17  CG         4.9810   -4.5140   26.2380 C.3    34  LEU34       0.0019
     18  CD1        4.3530   -3.2490   25.7020 C.3    34  LEU34       0.0001
     19  CD2        6.2210   -4.8840   25.4540 C.3    34  LEU34       0.0001
     20  N         11.9600   -4.1630   29.4490 N.3    39  PHE39      -0.1241
     21  CA        11.7540   -3.3170   28.2800 C.3    39  PHE39       0.1605
     22  C         12.3950   -1.9500   28.3830 C.2    39  PHE39       0.2264
     23  O         12.4340   -1.2220   27.4110 O.2    39  PHE39      -0.2867
     24  CB        10.2580   -3.1940   27.9910 C.3    39  PHE39       0.0534
     25  CG         9.6210   -4.5090   27.6900 C.ar   39  PHE39      -0.0203
     26  CD1        9.9230   -5.1740   26.5100 C.ar   39  PHE39      -0.0042
     27  CD2        8.7700   -5.1180   28.6050 C.ar   39  PHE39      -0.0042
     28  CE1        9.3770   -6.4130   26.2350 C.ar   39  PHE39      -0.0003
     29  CE2        8.2110   -6.3620   28.3320 C.ar   39  PHE39      -0.0003
     30  CZ         8.5150   -7.0100   27.1470 C.ar   39  PHE39      -0.0000
     31  N         15.6380   -0.9620   28.6900 N.3    41  PRO41      -0.2102
     32  CA        16.7520   -0.8240   27.7490 C.3    41  PRO41       0.1504
     33  C         16.3010   -0.7790   26.2940 C.2    41  PRO41       0.2575
     34  O         16.9450   -0.1490   25.4470 O.2    41  PRO41      -0.2718
     35  CB        17.5730   -2.1010   27.9850 C.3    41  PRO41       0.0282
     36  CG        17.1210   -2.6210   29.3040 C.3    41  PRO41       0.0208
     37  CD        15.7040   -2.2410   29.4160 C.3    41  PRO41       0.0893
     38  N         15.2180   -1.4930   26.0120 N.am   42  ILE42      -0.1980
     39  CA        14.6470   -1.5470   24.6750 C.3    42  ILE42       0.1595
     40  C         14.1240   -0.1710   24.2800 C.2    42  ILE42       0.2287
     41  O         14.4220    0.3300   23.1930 O.2    42  ILE42      -0.2864
     42  CB        13.5300   -2.5920   24.6370 C.3    42  ILE42       0.0276
     43  CG1       14.1570   -3.9880   24.7720 C.3    42  ILE42       0.0022
     44  CG2       12.6980   -2.4640   23.3350 C.3    42  ILE42       0.0022
     45  CD1       13.1840   -5.1050   25.0170 C.3    42  ILE42       0.0001
     46  N         16.9600    2.2360   23.5550 N.3    45  ASP45      -0.1239
     47  CA        17.6670    2.1090   22.2930 C.3    45  ASP45       0.1674
     48  C         16.8890    2.8800   21.2140 C.2    45  ASP45       0.2266
     49  O         17.4810    3.6390   20.4290 O.2    45  ASP45      -0.2867
     50  CB        17.8500    0.6420   21.9020 C.3    45  ASP45       0.1410
     51  CG        18.4840    0.4960   20.5240 C.2    45  ASP45       0.3668
     52  OD1       19.7170    0.3360   20.4460 O.co2  45  ASP45      -0.2456
     53  OD2       17.8170    0.5890   19.4690 O.co2  45  ASP45      -0.2456
     54  N         19.7000    1.6290   12.8000 N.3    93  TRP93      -0.1241
     55  CA        19.2030    0.8500   13.9120 C.3    93  TRP93       0.1605
     56  C         17.7540    1.1740   14.2900 C.2    93  TRP93       0.2264
     57  O         17.0240    0.2870   14.7350 O.2    93  TRP93      -0.2867
     58  CB        20.1380    1.0050   15.1100 C.3    93  TRP93       0.0550
     59  CG        21.3960    0.2550   14.9060 C.ar   93  TRP93       0.0003
     60  CD1       22.5590    0.7430   14.4460 C.ar   93  TRP93       0.0946
     61  CD2       21.5930   -1.1490   15.0960 C.ar   93  TRP93       0.0152
     62  NE1       23.4870   -0.2620   14.3580 N.ar   93  TRP93      -0.2442
     63  CE2       22.9190   -1.4320   14.7690 C.ar   93  TRP93       0.0810
     64  CE3       20.7790   -2.1940   15.5410 C.ar   93  TRP93       0.0012
     65  CZ2       23.4560   -2.7130   14.8600 C.ar   93  TRP93       0.0191
     66  CZ3       21.3110   -3.4590   15.6400 C.ar   93  TRP93       0.0001
     67  CH2       22.6310   -3.7110   15.3010 C.ar   93  TRP93       0.0015
     68  N         10.7420   -4.2140   13.5660 N.3   100  PHE100     -0.1241
     69  CA        10.3720   -5.2360   14.5300 C.3   100  PHE100      0.1605
     70  C          8.9430   -4.9910   15.0250 C.2   100  PHE100      0.2264
     71  O          8.1630   -5.9220   15.1170 O.2   100  PHE100     -0.2867
     72  CB        11.3320   -5.2920   15.7110 C.3   100  PHE100      0.0534
     73  CG        10.8790   -6.2350   16.7900 C.ar  100  PHE100     -0.0203
     74  CD1       11.4250   -7.4890   16.8800 C.ar  100  PHE100     -0.0042
     75  CD2        9.8640   -5.8670   17.6820 C.ar  100  PHE100     -0.0042
     76  CE1       11.0030   -8.3770   17.8590 C.ar  100  PHE100     -0.0003
     77  CE2        9.4240   -6.7460   18.6550 C.ar  100  PHE100     -0.0003
     78  CZ         9.9970   -8.0160   18.7480 C.ar  100  PHE100     -0.0000
     79  N          5.8130   -7.5940   14.3060 N.3   104  PHE104     -0.1241
     80  CA         5.1140   -8.0520   15.4900 C.3   104  PHE104      0.1605
     81  C          3.6110   -7.7410   15.4170 C.2   104  PHE104      0.2264
     82  O          2.7530   -8.6210   15.5730 O.2   104  PHE104     -0.2867
     83  CB         5.7320   -7.3910   16.7040 C.3   104  PHE104      0.0534
     84  CG         5.0740   -7.7510   17.9890 C.ar  104  PHE104     -0.0203
     85  CD1        5.1130   -9.0590   18.4540 C.ar  104  PHE104     -0.0042
     86  CD2        4.4050   -6.7880   18.7380 C.ar  104  PHE104     -0.0042
     87  CE1        4.5150   -9.4120   19.6490 C.ar  104  PHE104     -0.0003
     88  CE2        3.8060   -7.1340   19.9340 C.ar  104  PHE104     -0.0003
     89  CZ         3.8570   -8.4610   20.3850 C.ar  104  PHE104     -0.0000
     90  N          2.0590  -14.4440   22.9020 N.3   121  ILE121     -0.1245
     91  CA         2.5060  -13.7100   21.7180 C.3   121  ILE121      0.1561
     92  C          3.9730  -14.0140   21.4200 C.2   121  ILE121      0.2260
     93  O          4.6540  -13.2440   20.7450 O.2   121  ILE121     -0.2867
     94  CB         2.2830  -12.1830   21.8750 C.3   121  ILE121      0.0252
     95  CG1        2.9900  -11.6390   23.1250 C.3   121  ILE121      0.0019
     96  CG2        0.7980  -11.8650   21.9010 C.3   121  ILE121      0.0019
     97  CD1        2.5620  -10.2310   23.5190 C.3   121  ILE121      0.0001
     98  N          6.3900  -12.3470   18.4320 N.3   125  ALA125     -0.1245
     99  CA         7.6180  -11.6550   18.7850 C.3   125  ALA125      0.1562
    100  C          8.8450  -12.3500   18.2110 C.2   125  ALA125      0.2260
    101  O          9.8070  -11.6890   17.8370 O.2   125  ALA125     -0.2867
    102  CB         7.7260  -11.5190   20.2990 C.3   125  ALA125      0.0290
    103  N         11.4740  -10.8020   15.5490 N.3   129  TYR129     -0.1241
    104  CA        12.8920  -10.8670   15.8660 C.3   129  TYR129      0.1605
    105  C         13.6800  -11.4630   14.6960 C.2   129  TYR129      0.2264
    106  O         14.7000  -10.9100   14.2950 O.2   129  TYR129     -0.2867
    107  CB        13.1250  -11.6420   17.1620 C.3   129  TYR129      0.0534
    108  CG        14.5590  -11.6280   17.6230 C.ar  129  TYR129     -0.0201
    109  CD1       15.1780  -10.4380   18.0070 C.ar  129  TYR129     -0.0009
    110  CD2       15.3130  -12.8100   17.6730 C.ar  129  TYR129     -0.0009
    111  CE1       16.5210  -10.4140   18.4250 C.ar  129  TYR129      0.0417
    112  CE2       16.6610  -12.7980   18.0860 C.ar  129  TYR129      0.0417
    113  CZ        17.2530  -11.5990   18.4580 C.ar  129  TYR129      0.1957
    114  OH        18.5570  -11.5910   18.8710 O.3   129  TYR129     -0.2866
    115  N         15.7560   -8.2120   13.4180 N.3   133  LEU133     -0.1245
    116  CA        16.8840   -7.9930   14.3020 C.3   133  LEU133      0.1561
    117  C         17.9480   -9.0750   14.3610 C.2   133  LEU133      0.2260
    118  O         19.1140   -8.7430   14.4820 O.2   133  LEU133     -0.2867
    119  CB        16.3760   -7.7810   15.7240 C.3   133  LEU133      0.0270
    120  CG        15.6080   -6.4990   16.0230 C.3   133  LEU133      0.0019
    121  CD1       15.0890   -6.5760   17.4430 C.3   133  LEU133      0.0001
    122  CD2       16.4760   -5.2750   15.8610 C.3   133  LEU133      0.0001
    123  N         22.5310   -9.6820   15.4880 N.3   137  HIS137     -0.1241
    124  CA        22.8640   -9.9850   16.8660 C.3   137  HIS137      0.1621
    125  C         23.7900  -11.1980   16.9540 C.2   137  HIS137      0.2264
    126  O         23.5250  -12.2280   16.3340 O.2   137  HIS137     -0.2867
    127  CB        21.5930  -10.2660   17.6590 C.3   137  HIS137      0.0745
    128  CG        20.7680   -9.0460   17.9130 C.ar  137  HIS137      0.0817
    129  ND1       19.6800   -9.0470   18.7600 N.ar  137  HIS137     -0.2268
    130  CD2       20.8840   -7.7800   17.4440 C.ar  137  HIS137      0.1154
    131  CE1       19.1660   -7.8310   18.8100 C.ar  137  HIS137      0.1986
    132  NE2       19.8760   -7.0440   18.0180 N.ar  137  HIS137     -0.2212
    133  N         23.5210  -11.6210   22.6830 N.3   141  VAL141     -0.1245
    134  CA        22.3490  -10.7650   22.6150 C.3   141  VAL141      0.1561
    135  C         21.1310  -11.6230   22.2510 C.2   141  VAL141      0.2260
    136  O         20.0250  -11.4110   22.7580 O.2   141  VAL141     -0.2867
    137  CB        22.5830   -9.5840   21.6220 C.3   141  VAL141      0.0252
    138  CG1       21.3360   -8.7140   21.4790 C.3   141  VAL141      0.0019
    139  CG2       23.7540   -8.7140   22.0850 C.3   141  VAL141      0.0019
    140  N         19.9020  -13.2850   25.2840 N.3   144  ILE144     -0.1231
    141  CA        19.2000  -12.2690   26.0690 C.3   144  ILE144      0.1692
    142  C         17.7890  -12.0050   25.5260 C.2   144  ILE144      0.2592
    143  O         16.8570  -11.8520   26.3210 O.2   144  ILE144     -0.2718
    144  CB        20.0060  -10.9640   26.1650 C.3   144  ILE144      0.0266
    145  CG1       21.2900  -11.1940   26.9720 C.3   144  ILE144      0.0019
    146  CG2       19.1620   -9.8540   26.8290 C.3   144  ILE144      0.0020
    147  CD1       22.3740  -10.1770   26.7060 C.3   144  ILE144      0.0001
    148  N         17.6190  -11.9690   24.2020 N.am  145  PHE145     -0.1976
    149  CA        16.2750  -11.8680   23.6310 C.3   145  PHE145      0.1639
    150  C         15.3740  -13.0020   24.1180 C.2   145  PHE145      0.2290
    151  O         14.2430  -12.7770   24.5330 O.2   145  PHE145     -0.2864
    152  CB        16.2860  -11.9240   22.1130 C.3   145  PHE145      0.0560
    153  CG        14.9160  -12.2300   21.5140 C.ar  145  PHE145     -0.0200
    154  CD1       13.9150  -11.2540   21.5010 C.ar  145  PHE145     -0.0042
    155  CD2       14.6230  -13.4950   20.9950 C.ar  145  PHE145     -0.0042
    156  CE1       12.6570  -11.5170   20.9680 C.ar  145  PHE145     -0.0003
    157  CE2       13.3700  -13.7670   20.4580 C.ar  145  PHE145     -0.0003
    158  CZ        12.3830  -12.7740   20.4430 C.ar  145  PHE145     -0.0000
    159  N         14.3200  -12.3210   27.5760 N.3   148  ALA148     -0.1231
    160  CA        13.4180  -11.1670   27.5680 C.3   148  ALA148      0.1694
    161  C         12.0370  -11.5270   27.0490 C.2   148  ALA148      0.2591
    162  O         11.0560  -10.8850   27.4020 O.2   148  ALA148     -0.2718
    163  CB        14.0160  -10.0340   26.7180 C.3   148  ALA148      0.0304
    164  N         11.9750  -12.5620   26.2150 N.am  149  LEU149     -0.1980
    165  CA        10.7360  -13.0000   25.5820 C.3   149  LEU149      0.1596
    166  C          9.6790  -13.4260   26.5970 C.2   149  LEU149      0.2287
    167  O          8.4970  -13.2970   26.3450 O.2   149  LEU149     -0.2864
    168  CB        11.0320  -14.1580   24.6210 C.3   149  LEU149      0.0297
    169  CG         9.8720  -14.7230   23.8020 C.3   149  LEU149      0.0022
    170  CD1        9.1370  -13.6100   23.0520 C.3   149  LEU149      0.0001
    171  CD2       10.3670  -15.7980   22.8400 C.3   149  LEU149      0.0001
    172  N          7.0830  -10.9270   28.0000 N.3   152  ALA152     -0.1231
    173  CA         5.8890  -10.7180   27.1700 C.3   152  ALA152      0.1679
    174  C          4.5940  -11.0800   27.9040 C.2   152  ALA152      0.2434
    175  O          4.4890  -12.1790   28.4640 O.2   152  ALA152     -0.2733
    176  CB         5.9750  -11.5340   25.8950 C.3   152  ALA152      0.0304
    177  N          3.6130  -10.1720   27.8800 N.am  153  PRO153     -0.2729
    178  CA         2.2920  -10.4560   28.4400 C.3   153  PRO153      0.1401
    179  C          1.4780  -11.3380   27.5010 C.2   153  PRO153      0.2269
    180  O          1.9080  -11.5810   26.3700 O.2   153  PRO153     -0.2865
    181  CB         1.6590   -9.0670   28.5880 C.3   153  PRO153      0.0296
    182  CG         2.3510   -8.2000   27.6060 C.3   153  PRO153      0.0237
    183  CD         3.6880   -8.8110   27.3100 C.3   153  PRO153      0.0939
    184  N         -2.0510   -7.4750   26.4020 N.3   158  PHE158     -0.1241
    185  CA        -1.2670   -6.5610   25.5760 C.3   158  PHE158      0.1605
    186  C         -2.1980   -5.6440   24.8000 C.2   158  PHE158      0.2264
    187  O         -1.9330   -4.4470   24.6720 O.2   158  PHE158     -0.2867
    188  CB        -0.3980   -7.3650   24.5990 C.3   158  PHE158      0.0534
    189  CG         0.3250   -6.5200   23.5900 C.ar  158  PHE158     -0.0203
    190  CD1        1.3380   -5.6550   23.9900 C.ar  158  PHE158     -0.0042
    191  CD2       -0.0070   -6.5870   22.2420 C.ar  158  PHE158     -0.0042
    192  CE1        2.0090   -4.8640   23.0640 C.ar  158  PHE158     -0.0003
    193  CE2        0.6580   -5.8030   21.3090 C.ar  158  PHE158     -0.0003
    194  CZ         1.6690   -4.9380   21.7210 C.ar  158  PHE158     -0.0000
    195  N         26.3350   -7.2610   16.8060 N.3   205  VAL205     -0.1245
    196  CA        26.6520   -6.7070   18.1150 C.3   205  VAL205      0.1561
    197  C         26.5900   -7.7660   19.2140 C.2   205  VAL205      0.2260
    198  O         25.8840   -8.7740   19.1700 O.2   205  VAL205     -0.2867
    199  CB        25.7190   -5.5210   18.5060 C.3   205  VAL205      0.0252
    200  CG1       25.8590   -4.3750   17.5060 C.3   205  VAL205      0.0019
    201  CG2       24.2710   -5.9580   18.6280 C.3   205  VAL205      0.0019
@<TRIPOS>BOND
     1    54    55    1
     2   115   116    1
     3    68    69    1
     4    55    56    1
     5    55    58    1
     6    56    57    2
     7   106   105    2
     8   116   117    1
     9   116   119    1
    10    79    80    1
    11    62    60   ar
    12    62    63   ar
    13   117   118    2
    14    60    59   ar
    15    69    70    1
    16    69    72    1
    17   105   104    1
    18    63    65   ar
    19    63    61   ar
    20    65    67   ar
    21    59    61   ar
    22    59    58    1
    23    70    71    2
    24    61    64   ar
    25    67    66   ar
    26    81    80    1
    27    81    82    2
    28   123   124    1
    29    80    83    1
    30    64    66   ar
    31   103   104    1
    32    72    73    1
    33   119   120    1
    34   122   120    1
    35   104   107    1
    36   120   121    1
    37   126   125    2
    38    83    84    1
    39    73    74   ar
    40    73    75   ar
    41   195   196    1
    42   124   125    1
    43   124   127    1
    44    74    76   ar
    45   107   108    1
    46   130   128   ar
    47   130   132   ar
    48   200   199    1
    49   108   110   ar
    50   108   109   ar
    51   127   128    1
    52   110   112   ar
    53    75    77   ar
    54   101   100    2
    55    76    78   ar
    56   128   129   ar
    57    84    85   ar
    58    84    86   ar
    59   109   111   ar
    60   132   131   ar
    61   112   113   ar
    62   196   199    1
    63   196   197    1
    64   100    99    1
    65   111   113   ar
    66    98    99    1
    67    85    87   ar
    68   113   114    1
    69   199   201    1
    70    77    78   ar
    71    86    88   ar
    72   129   131   ar
    73    99   102    1
    74   198   197    2
    75    53    51   ar
    76    87    89   ar
    77    88    89   ar
    78    49    48    2
    79   158   157   ar
    80   158   156   ar
    81    52    51   ar
    82   157   155   ar
    83    51    50    1
    84    93    92    2
    85   156   154   ar
    86   155   153   ar
    87    48    47    1
    88   193   194   ar
    89   193   191   ar
    90    92    91    1
    91   138   137    1
    92   154   153   ar
    93   153   152    1
    94   137   139    1
    95   137   134    1
    96    91    94    1
    97    91    90    1
    98   194   192   ar
    99    94    96    1
   100    94    95    1
   101    50    47    1
   102    11    10   ar
   103    11     9   ar
   104   152   149    1
   105   191   189   ar
   106   135   134    1
   107   135   136    2
   108    10     8   ar
   109    47    46    1
   110   134   133    1
   111   171   169    1
   112     9     7   ar
   113   170   169    1
   114   192   190   ar
   115    95    97    1
   116    41    40    2
   117    44    42    1
   118     8     6   ar
   119   189   190   ar
   120   189   188    1
   121   149   150    1
   122   149   148    1
   123   169   168    1
   124   150   151    2
   125   148   142   am
   126    40    39    1
   127     7     6   ar
   128     6     5    1
   129   188   185    1
   130   168   165    1
   131    42    39    1
   132    42    43    1
   133   187   186    2
   134    39    38    1
   135    43    45    1
   136   186   185    1
   137   140   141    1
   138    34    33    2
   139    19    17    1
   140   142   141    1
   141   142   143    2
   142   185   184    1
   143   165   164    1
   144   165   166    1
   145     1     2    1
   146    18    17    1
   147   176   173    1
   148     5     2    1
   149    38    33   am
   150   141   144    1
   151   144   146    1
   152   144   145    1
   153   164   161   am
   154    28    26   ar
   155    28    30   ar
   156    17    16    1
   157    33    32    1
   158     2     3    1
   159   167   166    2
   160   180   179    2
   161    26    25   ar
   162   147   145    1
   163   163   160    1
   164   161   162    2
   165   161   160    1
   166    30    29   ar
   167   173   174    1
   168   173   172    1
   169   183   182    1
   170   183   177    1
   171    23    22    2
   172   179   178    1
   173   160   159    1
   174   182   181    1
   175    25    24    1
   176    25    27   ar
   177    16    13    1
   178    32    35    1
   179    32    31    1
   180     3     4    2
   181   177   174   am
   182   177   178    1
   183   174   175    2
   184    35    36    1
   185    24    21    1
   186    21    22    1
   187    21    20    1
   188    29    27   ar
   189   178   181    1
   190    13    12    1
   191    13    14    1
   192    31    37    1
   193    36    37    1
   194    15    14    2
