@<TRIPOS>MOLECULE
tmp/1sxjC00.pdb
 210 204 0 0 0
SMALL
GASTEIGER

@<TRIPOS>ATOM
      1  N         -9.9330   60.4240   14.2820 N.3     5  VAL5       -0.1231
      2  CA        -9.6730   60.0900   15.6810 C.3     5  VAL5        0.1692
      3  C         -9.3050   61.3360   16.4820 C.2     5  VAL5        0.2591
      4  O         -9.6920   61.4800   17.6400 O.2     5  VAL5       -0.2718
      5  CB        -8.5240   59.0810   15.7890 C.3     5  VAL5        0.0266
      6  CG1       -8.3390   58.6660   17.2210 C.3     5  VAL5        0.0020
      7  CG2       -8.8120   57.8820   14.9070 C.3     5  VAL5        0.0020
      8  N         -8.5510   62.2310   15.8510 N.am    6  GLU6       -0.1979
      9  CA        -8.1350   63.4780   16.4760 C.3     6  GLU6        0.1602
     10  C         -9.0650   64.6040   16.0480 C.2     6  GLU6        0.2287
     11  O         -9.4370   65.4560   16.8510 O.2     6  GLU6       -0.2864
     12  CB        -6.6980   63.8200   16.0720 C.3     6  GLU6        0.0415
     13  CG        -5.6340   63.0110   16.8000 C.3     6  GLU6        0.1163
     14  CD        -5.5510   63.3560   18.2760 C.2     6  GLU6        0.3649
     15  OE1       -5.1800   64.5030   18.5980 O.co2   6  GLU6       -0.2457
     16  OE2       -5.8610   62.4830   19.1140 O.co2   6  GLU6       -0.2457
     17  N        -12.2420   64.9260   15.5300 N.3     8  TYR8       -0.1227
     18  CA       -13.4450   65.1320   16.3380 C.3     8  TYR8        0.1736
     19  C        -13.2270   65.1090   17.8470 C.2     8  TYR8        0.2595
     20  O        -14.0540   64.5870   18.5950 O.2     8  TYR8       -0.2718
     21  CB       -14.5030   64.0930   15.9630 C.3     8  TYR8        0.0548
     22  CG       -15.0580   64.2970   14.5800 C.ar    8  TYR8       -0.0200
     23  CD1      -15.8550   65.4050   14.2860 C.ar    8  TYR8       -0.0009
     24  CD2      -14.7560   63.4090   13.5520 C.ar    8  TYR8       -0.0009
     25  CE1      -16.3360   65.6250   12.9990 C.ar    8  TYR8        0.0417
     26  CE2      -15.2290   63.6170   12.2630 C.ar    8  TYR8        0.0417
     27  CZ       -16.0190   64.7260   11.9910 C.ar    8  TYR8        0.1957
     28  OH       -16.4860   64.9330   10.7090 O.3     8  TYR8       -0.2866
     29  N        -12.1180   65.6890   18.2890 N.am    9  ARG9       -0.1966
     30  CA       -11.7770   65.7460   19.7030 C.3     9  ARG9        0.1714
     31  C        -12.5140   66.8720   20.4170 C.2     9  ARG9        0.2458
     32  O        -12.3670   68.0370   20.0630 O.2     9  ARG9       -0.2730
     33  CB       -10.2650   65.9250   19.8430 C.3     9  ARG9        0.0347
     34  CG        -9.8080   66.6050   21.1210 C.3     9  ARG9        0.0492
     35  CD        -8.3270   66.3660   21.3480 C.3     9  ARG9        0.2205
     36  NE        -8.0810   65.0040   21.8050 N.pl3   9  ARG9       -0.0865
     37  CZ        -6.9070   64.3910   21.7300 C.cat   9  ARG9        0.5346
     38  NH1       -5.8600   65.0200   21.2050 N.pl3   9  ARG9        0.1354
     39  NH2       -6.7770   63.1510   22.1850 N.pl3   9  ARG9        0.1354
     40  N        -13.3210   66.5380   21.4350 N.am   10  PRO10      -0.2727
     41  CA       -14.0650   67.5600   22.1740 C.3    10  PRO10       0.1402
     42  C        -13.2480   68.8220   22.3910 C.2    10  PRO10       0.2269
     43  O        -12.1370   68.7650   22.9240 O.2    10  PRO10      -0.2865
     44  CB       -14.4000   66.8520   23.4840 C.3    10  PRO10       0.0296
     45  CG       -14.6780   65.4690   23.0230 C.3    10  PRO10       0.0237
     46  CD       -13.5530   65.2040   22.0210 C.3    10  PRO10       0.0939
     47  N        -18.8640   68.9940   24.6660 N.3    15  GLU15      -0.1231
     48  CA       -18.6790   68.1250   23.5150 C.3    15  GLU15       0.1699
     49  C        -18.2430   66.7120   23.8920 C.2    15  GLU15       0.2592
     50  O        -17.9960   65.8890   23.0140 O.2    15  GLU15      -0.2718
     51  CB       -17.6650   68.7340   22.5470 C.3    15  GLU15       0.0402
     52  CG       -18.1160   70.0390   21.9130 C.3    15  GLU15       0.1161
     53  CD       -17.1380   70.5550   20.8700 C.2    15  GLU15       0.3649
     54  OE1      -16.9630   69.8840   19.8260 O.co2  15  GLU15      -0.2457
     55  OE2      -16.5440   71.6310   21.0980 O.co2  15  GLU15      -0.2457
     56  N        -18.1400   66.4240   25.1890 N.am   16  VAL16      -0.1966
     57  CA       -17.7430   65.0860   25.6370 C.3    16  VAL16       0.1727
     58  C        -19.0040   64.2470   25.7890 C.2    16  VAL16       0.2616
     59  O        -19.9310   64.6350   26.4900 O.2    16  VAL16      -0.2715
     60  CB       -16.9940   65.1240   27.0020 C.3    16  VAL16       0.0290
     61  CG1      -16.7800   63.7070   27.5180 C.3    16  VAL16       0.0023
     62  CG2      -15.6510   65.8380   26.8540 C.3    16  VAL16       0.0023
     63  N        -19.0360   63.0940   25.1330 N.am   17  TYR17      -0.1974
     64  CA       -20.2080   62.2310   25.1860 C.3    17  TYR17       0.1639
     65  C        -20.1150   61.0630   26.1710 C.2    17  TYR17       0.2290
     66  O        -19.0830   60.4050   26.2860 O.2    17  TYR17      -0.2864
     67  CB       -20.5050   61.6740   23.7880 C.3    17  TYR17       0.0560
     68  CG       -20.9100   62.7100   22.7580 C.ar   17  TYR17      -0.0198
     69  CD1      -22.2130   62.7590   22.2650 C.ar   17  TYR17      -0.0009
     70  CD2      -19.9890   63.6340   22.2690 C.ar   17  TYR17      -0.0009
     71  CE1      -22.5880   63.7020   21.3090 C.ar   17  TYR17       0.0417
     72  CE2      -20.3530   64.5810   21.3180 C.ar   17  TYR17       0.0417
     73  CZ       -21.6510   64.6110   20.8430 C.ar   17  TYR17       0.1957
     74  OH       -22.0120   65.5590   19.9140 O.3    17  TYR17      -0.2866
     75  N        -20.0800   60.9380   29.5510 N.3    19  GLN19      -0.1245
     76  CA       -19.3390   61.0380   30.7990 C.3    19  GLN19       0.1566
     77  C        -19.9730   62.1570   31.6140 C.2    19  GLN19       0.2260
     78  O        -19.3130   62.7890   32.4350 O.2    19  GLN19      -0.2867
     79  CB       -17.8610   61.3580   30.5390 C.3    19  GLN19       0.0367
     80  CG       -17.1210   60.3750   29.6320 C.3    19  GLN19       0.0905
     81  CD       -17.1070   58.9530   30.1720 C.2    19  GLN19       0.2608
     82  OE1      -17.5460   58.6900   31.2940 O.2    19  GLN19      -0.2717
     83  NE2      -16.5990   58.0290   29.3710 N.am   19  GLN19      -0.0878
     84  N        -10.7880   52.9710   30.4230 N.3    43  PRO43      -0.2103
     85  CA       -10.1150   52.3240   29.2990 C.3    43  PRO43       0.1489
     86  C         -9.7490   53.3260   28.2150 C.2    43  PRO43       0.2418
     87  O         -9.9740   54.5330   28.3580 O.2    43  PRO43      -0.2734
     88  CB       -11.1470   51.3200   28.8040 C.3    43  PRO43       0.0282
     89  CG       -12.1280   51.1980   29.9340 C.3    43  PRO43       0.0208
     90  CD       -12.2030   52.5910   30.4540 C.3    43  PRO43       0.0893
     91  N         -9.1780   52.8410   27.1080 N.am   44  PRO44      -0.2718
     92  CA        -8.7930   53.7310   26.0130 C.3    44  PRO44       0.1535
     93  C         -9.9640   54.4580   25.3370 C.2    44  PRO44       0.2599
     94  O        -11.0690   53.9270   25.2410 O.2    44  PRO44      -0.2715
     95  CB        -8.0630   52.7870   25.0610 C.3    44  PRO44       0.0310
     96  CG        -7.4460   51.7980   26.0000 C.3    44  PRO44       0.0237
     97  CD        -8.5870   51.5070   26.9230 C.3    44  PRO44       0.0939
     98  N         -9.6950   55.6770   24.8770 N.am   45  GLY45      -0.1941
     99  CA       -10.6910   56.4830   24.1900 C.3    45  GLY45       0.2014
    100  C        -12.0410   56.5960   24.8680 C.2    45  GLY45       0.2640
    101  O        -13.0480   56.1590   24.3200 O.2    45  GLY45      -0.2714
    102  N        -12.0680   57.1970   26.0520 N.am   46  THR46      -0.1936
    103  CA       -13.3030   57.3580   26.7990 C.3    46  THR46       0.2028
    104  C        -13.5350   58.8420   27.0600 C.2    46  THR46       0.2643
    105  O        -14.6000   59.2450   27.5340 O.2    46  THR46      -0.2714
    106  CB       -13.2260   56.6200   28.1310 C.3    46  THR46       0.1808
    107  OG1      -12.2910   55.5480   28.0230 O.3    46  THR46      -0.2208
    108  CG2      -14.5610   56.0270   28.4800 C.3    46  THR46       0.0379
    109  N        -12.5230   59.6520   26.7600 N.am   47  GLY47      -0.1939
    110  CA       -12.6530   61.0860   26.9430 C.3    47  GLY47       0.2014
    111  C        -11.8370   61.6900   28.0610 C.2    47  GLY47       0.2639
    112  O        -11.9850   62.8750   28.3600 O.2    47  GLY47      -0.2714
    113  N        -10.9710   60.8900   28.6780 N.am   48  LYS48      -0.1963
    114  CA       -10.1400   61.3750   29.7820 C.3    48  LYS48       0.1728
    115  C         -9.2640   62.5910   29.4510 C.2    48  LYS48       0.2617
    116  O         -9.3810   63.6320   30.1010 O.2    48  LYS48      -0.2715
    117  CB        -9.2660   60.2390   30.3310 C.3    48  LYS48       0.0311
    118  CG       -10.0140   59.2790   31.2270 C.3    48  LYS48       0.0038
    119  CD        -9.0620   58.2900   31.8990 C.3    48  LYS48       0.0206
    120  CE        -9.0790   56.9250   31.2250 C.3    48  LYS48       0.1093
    121  NZ        -8.5930   56.9390   29.8370 N.3    48  LYS48      -0.1314
    122  N         -8.3870   62.4630   28.4600 N.am   49  THR49      -0.1937
    123  CA        -7.5250   63.5790   28.1040 C.3    49  THR49       0.2028
    124  C         -8.3610   64.7570   27.5720 C.2    49  THR49       0.2642
    125  O         -8.0970   65.9260   27.8860 O.2    49  THR49      -0.2714
    126  CB        -6.4600   63.1540   27.0560 C.3    49  THR49       0.1808
    127  OG1       -5.5770   62.1910   27.6410 O.3    49  THR49      -0.2208
    128  CG2       -5.6460   64.3580   26.5890 C.3    49  THR49       0.0379
    129  N         -9.3790   64.4430   26.7770 N.am   50  SER50      -0.1949
    130  CA       -10.2450   65.4680   26.2200 C.3    50  SER50       0.1924
    131  C        -10.8080   66.2890   27.3610 C.2    50  SER50       0.2314
    132  O        -10.7570   67.5110   27.3420 O.2    50  SER50      -0.2863
    133  CB       -11.4020   64.8320   25.4430 C.3    50  SER50       0.2116
    134  OG       -10.9460   64.0610   24.3420 O.3    50  SER50      -0.2180
    135  N         -0.7860   63.1380   32.8400 N.3   106  ASP106     -0.1225
    136  CA        -1.4810   62.1830   31.9850 C.3   106  ASP106      0.1805
    137  C         -0.7370   60.8570   31.9900 C.2   106  ASP106      0.2597
    138  O          0.4820   60.8160   32.1760 O.2   106  ASP106     -0.2718
    139  CB        -1.5790   62.7230   30.5600 C.3   106  ASP106      0.1424
    140  CG        -2.9370   62.4740   29.9340 C.2   106  ASP106      0.3668
    141  OD1       -3.4090   61.3200   29.9520 O.co2 106  ASP106     -0.2456
    142  OD2       -3.5330   63.4380   29.4190 O.co2 106  ASP106     -0.2456
    143  N         -1.4820   59.7790   31.7640 N.am  107  GLU107     -0.1979
    144  CA        -0.9330   58.4260   31.7860 C.3   107  GLU107      0.1602
    145  C          0.0500   58.3050   32.9480 C.2   107  GLU107      0.2287
    146  O          1.1890   57.8650   32.7980 O.2   107  GLU107     -0.2864
    147  CB        -0.2770   58.0850   30.4440 C.3   107  GLU107      0.0415
    148  CG         0.2370   59.2840   29.6860 C.3   107  GLU107      0.1163
    149  CD        -0.1500   59.2600   28.2200 C.2   107  GLU107      0.3649
    150  OE1        0.2740   60.1780   27.4850 O.co2 107  GLU107     -0.2457
    151  OE2       -0.8750   58.3280   27.8080 O.co2 107  GLU107     -0.2457
    152  N         -5.3210   57.8630   34.2490 N.3   136  ALA136     -0.1231
    153  CA        -4.7970   56.5250   34.0530 C.3   136  ALA136      0.1694
    154  C         -5.8040   55.5150   33.5260 C.2   136  ALA136      0.2592
    155  O         -7.0230   55.7130   33.6100 O.2   136  ALA136     -0.2718
    156  CB        -4.2030   56.0260   35.3700 C.3   136  ALA136      0.0304
    157  N         -5.2770   54.4250   32.9800 N.am  137  ASN137     -0.1974
    158  CA        -6.1270   53.3720   32.4640 C.3   137  ASN137      0.1688
    159  C         -6.4200   52.3720   33.5720 C.2   137  ASN137      0.2292
    160  O         -7.4650   51.7180   33.5890 O.2   137  ASN137     -0.2864
    161  CB        -5.4550   52.6780   31.2920 C.3   137  ASN137      0.1181
    162  CG        -5.3780   53.5610   30.0750 C.2   137  ASN137      0.2629
    163  OD1       -4.2960   53.9900   29.6790 O.2   137  ASN137     -0.2716
    164  ND2       -6.5320   53.8470   29.4730 N.am  137  ASN137     -0.0877
    165  N        -18.0540   54.2200   26.4700 N.3   158  LEU158     -0.1245
    166  CA       -19.1590   54.9880   25.9050 C.3   158  LEU158      0.1561
    167  C        -20.3710   54.1120   25.6300 C.2   158  LEU158      0.2260
    168  O        -20.2780   53.1160   24.9190 O.2   158  LEU158     -0.2867
    169  CB       -18.7310   55.6840   24.6150 C.3   158  LEU158      0.0270
    170  CG       -17.7310   56.8260   24.7840 C.3   158  LEU158      0.0019
    171  CD1      -18.1690   57.6920   25.9580 C.3   158  LEU158      0.0001
    172  CD2      -16.3410   56.2740   25.0300 C.3   158  LEU158      0.0001
    173  N        -22.5070   60.6060   18.5490 N.3   166  ARG166     -0.1245
    174  CA       -21.3350   61.0740   17.8300 C.3   166  ARG166      0.1563
    175  C        -21.3370   60.5840   16.3800 C.2   166  ARG166      0.2260
    176  O        -20.9290   61.3120   15.4730 O.2   166  ARG166     -0.2867
    177  CB       -20.0640   60.6120   18.5290 C.3   166  ARG166      0.0307
    178  CG       -18.8300   61.3340   18.0480 C.3   166  ARG166      0.0489
    179  CD       -19.0290   62.8300   18.1470 C.3   166  ARG166      0.2205
    180  NE       -17.7610   63.5480   18.1950 N.pl3 166  ARG166     -0.0865
    181  CZ       -17.6610   64.8700   18.2360 C.cat 166  ARG166      0.5346
    182  NH1      -18.7550   65.6180   18.2260 N.pl3 166  ARG166      0.1354
    183  NH2      -16.4690   65.4430   18.3100 N.pl3 166  ARG166      0.1354
    184  N        -14.6400   55.0320   21.8320 N.3   194  MET194     -0.1230
    185  CA       -14.9500   56.0170   20.8050 C.3   194  MET194      0.1702
    186  C        -13.8470   56.1070   19.7590 C.2   194  MET194      0.2592
    187  O        -14.1010   56.4210   18.5940 O.2   194  MET194     -0.2718
    188  CB       -15.1420   57.3870   21.4530 C.3   194  MET194      0.0401
    189  CG       -15.4980   58.5030   20.4870 C.3   194  MET194      0.0596
    190  SD       -17.1960   58.4060   19.8980 S.3   194  MET194     -0.1393
    191  CE       -16.9340   57.9270   18.1960 C.3   194  MET194      0.0692
    192  N        -12.6200   55.8260   20.1790 N.am  195  ARG195     -0.1980
    193  CA       -11.4880   55.9040   19.2730 C.3   195  ARG195      0.1597
    194  C        -11.6070   54.9070   18.1060 C.2   195  ARG195      0.2287
    195  O        -11.3780   55.2730   16.9560 O.2   195  ARG195     -0.2864
    196  CB       -10.1800   55.6840   20.0530 C.3   195  ARG195      0.0334
    197  CG        -8.9820   56.4510   19.5000 C.3   195  ARG195      0.0492
    198  CD        -7.6470   55.9260   20.0350 C.3   195  ARG195      0.2205
    199  NE        -7.3420   56.3080   21.4170 N.pl3 195  ARG195     -0.0865
    200  CZ        -6.8700   57.4980   21.7820 C.cat 195  ARG195      0.5346
    201  NH1       -6.6450   58.4400   20.8680 N.pl3 195  ARG195      0.1354
    202  NH2       -6.6110   57.7440   23.0570 N.pl3 195  ARG195      0.1354
    203  N        -14.4160   56.0870   15.2910 N.3   198  LEU198     -0.1245
    204  CA       -13.9680   57.1150   14.3670 C.3   198  LEU198      0.1561
    205  C        -12.9100   56.5860   13.4150 C.2   198  LEU198      0.2260
    206  O        -12.7300   57.1170   12.3190 O.2   198  LEU198     -0.2867
    207  CB       -13.4080   58.3070   15.1380 C.3   198  LEU198      0.0270
    208  CG       -14.4270   59.0600   15.9900 C.3   198  LEU198      0.0019
    209  CD1      -13.7100   60.1160   16.8230 C.3   198  LEU198      0.0001
    210  CD2      -15.4900   59.6870   15.0970 C.3   198  LEU198      0.0001
@<TRIPOS>BOND
     1    28    27    1
     2    27    26   ar
     3    27    25   ar
     4    26    24   ar
     5   206   205    2
     6    25    23   ar
     7   205   204    1
     8    24    22   ar
     9     1     2    1
    10    23    22   ar
    11   204   207    1
    12   204   203    1
    13    22    21    1
    14     7     5    1
    15   210   208    1
    16   207   208    1
    17   176   175    2
    18    17    18    1
    19     2     5    1
    20     2     3    1
    21     5     6    1
    22     8     9    1
    23     8     3   am
    24    21    18    1
    25   208   209    1
    26    10     9    1
    27    10    11    2
    28    12     9    1
    29    12    13    1
    30    18    19    1
    31   175   174    1
    32     3     4    2
    33    13    14    1
    34   195   194    2
    35   174   177    1
    36   174   173    1
    37    19    29   am
    38    19    20    2
    39   178   179    1
    40   178   177    1
    41   194   193    1
    42   179   180    1
    43   180   181    2
    44   191   190    1
    45   182   181    1
    46   181   183    1
    47    14    15   ar
    48    14    16   ar
    49    29    30    1
    50   187   186    2
    51   193   196    1
    52   193   192    1
    53   197   198    1
    54   197   196    1
    55    30    33    1
    56    30    31    1
    57   186   192   am
    58   186   185    1
    59    54    53   ar
    60    33    34    1
    61   190   189    1
    62    74    73    1
    63   198   199    1
    64    32    31    2
    65    31    40   am
    66   189   188    1
    67   185   188    1
    68   185   184    1
    69    73    71   ar
    70    73    72   ar
    71   201   200    1
    72    53    55   ar
    73    53    52    1
    74    34    35    1
    75    38    37    1
    76    71    69   ar
    77    72    70   ar
    78    35    36    1
    79   199   200    2
    80    40    46    1
    81    40    41    1
    82    37    36    2
    83    37    39    1
    84   200   202    1
    85    52    51    1
    86    46    45    1
    87    41    42    1
    88    41    44    1
    89    69    68   ar
    90    70    68   ar
    91    42    43    2
    92    51    48    1
    93    68    67    1
    94    50    49    2
    95    45    44    1
    96    48    49    1
    97    48    47    1
    98    67    64    1
    99    49    56   am
   100    99   100    1
   101    99    98    1
   102   101   100    2
   103   134   133    1
   104   169   170    1
   105   169   166    1
   106   170   172    1
   107   170   171    1
   108   100   102   am
   109    98    93   am
   110   168   167    2
   111    95    96    1
   112    95    92    1
   113    63    64    1
   114    63    58   am
   115    64    65    1
   116    56    57    1
   117    94    93    2
   118    93    92    1
   119   133   130    1
   120   167   166    1
   121    57    58    1
   122    57    60    1
   123    58    59    2
   124   166   165    1
   125    96    97    1
   126    92    91    1
   127   102   103    1
   128    65    66    2
   129   130   129    1
   130   130   131    1
   131   128   126    1
   132   109   110    1
   133   109   104   am
   134   129   124   am
   135   103   104    1
   136   103   106    1
   137    62    60    1
   138    97    91    1
   139   110   111    1
   140    60    61    1
   141   126   127    1
   142   126   123    1
   143   104   105    2
   144    91    86   am
   145   132   131    2
   146   150   149   ar
   147   124   125    2
   148   124   123    1
   149   151   149   ar
   150   107   106    1
   151   111   112    2
   152   111   113   am
   153   123   122    1
   154   106   108    1
   155    86    87    2
   156    86    85    1
   157   149   148    1
   158   122   115   am
   159   113   114    1
   160    88    85    1
   161    88    89    1
   162    85    84    1
   163    83    81   am
   164   142   140   ar
   165   115   114    1
   166   115   116    2
   167   164   162   am
   168    75    76    1
   169    80    81    1
   170    80    79    1
   171   163   162    2
   172   148   147    1
   173   114   117    1
   174   121   120    1
   175    89    90    1
   176   140   141   ar
   177   140   139    1
   178   162   161    1
   179    81    82    2
   180   117   118    1
   181    84    90    1
   182   147   144    1
   183    79    76    1
   184   139   136    1
   185    76    77    1
   186   120   119    1
   187   118   119    1
   188   161   158    1
   189    77    78    2
   190   143   144    1
   191   143   137   am
   192   144   145    1
   193   136   137    1
   194   136   135    1
   195   137   138    2
   196   158   157    1
   197   158   159    1
   198   146   145    2
   199   157   154   am
   200   154   155    2
   201   154   153    1
   202   159   160    2
   203   153   152    1
   204   153   156    1
