@<TRIPOS>MOLECULE
tmp/1sxjA00.pdb
 185 177 0 0 0
SMALL
GASTEIGER

@<TRIPOS>ATOM
      1  N         25.5600   48.1110   71.0880 N.3     5  THR5       -0.1203
      2  CA        26.6100   47.5950   70.2120 C.3     5  THR5        0.1994
      3  C         27.8660   48.4300   70.4020 C.2     5  THR5        0.2617
      4  O         28.9760   47.9680   70.1530 O.2     5  THR5       -0.2717
      5  CB        26.1900   47.6480   68.7230 C.3     5  THR5        0.1784
      6  OG1       25.5730   48.9110   68.4430 O.3     5  THR5       -0.2211
      7  CG2       25.2200   46.5310   68.4010 C.3     5  THR5        0.0376
      8  N         27.6780   49.6640   70.8560 N.am    6  VAL6       -0.1979
      9  CA        28.7980   50.5540   71.0850 C.3     6  VAL6        0.1595
     10  C         29.4600   50.2200   72.4110 C.2     6  VAL6        0.2287
     11  O         30.5960   49.7440   72.4350 O.2     6  VAL6       -0.2864
     12  CB        28.3540   52.0290   71.1020 C.3     6  VAL6        0.0276
     13  CG1       29.4680   52.9030   71.6380 C.3     6  VAL6        0.0022
     14  CG2       27.9870   52.4740   69.7070 C.3     6  VAL6        0.0022
     15  N         29.3280   47.8190   74.2330 N.3     8  TYR8       -0.1227
     16  CA        29.8070   46.4480   74.3490 C.3     8  TYR8        0.1736
     17  C         30.6080   46.0120   73.1350 C.2     8  TYR8        0.2595
     18  O         30.6050   44.8440   72.7440 O.2     8  TYR8       -0.2718
     19  CB        28.6290   45.5050   74.6150 C.3     8  TYR8        0.0548
     20  CG        27.9960   45.7560   75.9680 C.ar    8  TYR8       -0.0200
     21  CD1       26.7180   45.2960   76.2690 C.ar    8  TYR8       -0.0009
     22  CD2       28.6790   46.4780   76.9480 C.ar    8  TYR8       -0.0009
     23  CE1       26.1350   45.5540   77.5110 C.ar    8  TYR8        0.0417
     24  CE2       28.1100   46.7390   78.1840 C.ar    8  TYR8        0.0417
     25  CZ        26.8390   46.2780   78.4620 C.ar    8  TYR8        0.1957
     26  OH        26.2740   46.5620   79.6860 O.3     8  TYR8       -0.2866
     27  N         31.3110   46.9730   72.5500 N.am    9  ALA9       -0.1966
     28  CA        32.1470   46.7160   71.3870 C.3     9  ALA9        0.1713
     29  C         33.5160   46.2200   71.8420 C.2     9  ALA9        0.2458
     30  O         34.1300   46.7930   72.7510 O.2     9  ALA9       -0.2730
     31  CB        32.3050   47.9920   70.5640 C.3     9  ALA9        0.0333
     32  N         34.0080   45.1390   71.2240 N.am   10  PRO10      -0.2727
     33  CA        35.3130   44.5800   71.5730 C.3    10  PRO10       0.1402
     34  C         36.3470   45.6760   71.8350 C.2    10  PRO10       0.2269
     35  O         36.2750   46.7520   71.2430 O.2    10  PRO10      -0.2865
     36  CB        35.6470   43.7430   70.3480 C.3    10  PRO10       0.0296
     37  CG        34.3100   43.1710   70.0030 C.3    10  PRO10       0.0237
     38  CD        33.3780   44.3600   70.1440 C.3    10  PRO10       0.0939
     39  N         38.1050   39.6370   72.3270 N.3    15  GLN15      -0.1231
     40  CA        36.6830   39.8200   72.5600 C.3    15  GLN15       0.1698
     41  C         35.8820   39.7280   71.2680 C.2    15  GLN15       0.2592
     42  O         34.7210   40.1220   71.2210 O.2    15  GLN15      -0.2718
     43  CB        36.4300   41.1630   73.2540 C.3    15  GLN15       0.0381
     44  CG        36.9690   41.2240   74.6760 C.3    15  GLN15       0.0905
     45  CD        36.6230   42.5160   75.3900 C.2    15  GLN15       0.2608
     46  OE1       37.0610   43.5950   74.9950 O.2    15  GLN15      -0.2717
     47  NE2       35.8330   42.4110   76.4500 N.am   15  GLN15      -0.0878
     48  N         36.5080   39.2040   70.2200 N.am   16  VAL16      -0.1966
     49  CA        35.8320   39.0470   68.9380 C.3    16  VAL16       0.1727
     50  C         35.2740   37.6270   68.8540 C.2    16  VAL16       0.2616
     51  O         35.9850   36.6750   68.5240 O.2    16  VAL16      -0.2715
     52  CB        36.7980   39.3000   67.7490 C.3    16  VAL16       0.0290
     53  CG1       36.0640   39.1230   66.4310 C.3    16  VAL16       0.0023
     54  CG2       37.3720   40.7010   67.8350 C.3    16  VAL16       0.0023
     55  N         33.9890   37.5010   69.1600 N.am   17  CYS17      -0.1968
     56  CA        33.3090   36.2180   69.1440 C.3    17  CYS17       0.1712
     57  C         33.3200   35.5490   67.7790 C.2    17  CYS17       0.2296
     58  O         32.5200   35.8760   66.9110 O.2    17  CYS17      -0.2864
     59  CB        31.8660   36.4000   69.5980 C.3    17  CYS17       0.0983
     60  SG        31.7080   37.4790   71.0230 S.3    17  CYS17      -0.0798
     61  N         35.4510   33.5900   64.2530 N.3    19  ASN19      -0.1240
     62  CA        36.4530   33.8300   63.2280 C.3    19  ASN19       0.1653
     63  C         37.8810   33.8480   63.7850 C.2    19  ASN19       0.2266
     64  O         38.8190   34.1670   63.0550 O.2    19  ASN19      -0.2867
     65  CB        36.1680   35.1650   62.5250 C.3    19  ASN19       0.1155
     66  CG        34.7570   35.2510   61.9570 C.2    19  ASN19       0.2627
     67  OD1       34.4080   34.5430   61.0090 O.2    19  ASN19      -0.2716
     68  ND2       33.9400   36.1270   62.5390 N.am   19  ASN19      -0.0877
     69  N         27.1060   40.8690   57.2810 N.3    61  PRO61      -0.2102
     70  CA        26.9500   42.0460   58.1320 C.3    61  PRO61       0.1504
     71  C         27.1320   41.7580   59.6090 C.2    61  PRO61       0.2576
     72  O         26.7730   40.6880   60.0900 O.2    61  PRO61      -0.2718
     73  CB        25.5280   42.4960   57.8300 C.3    61  PRO61       0.0282
     74  CG        25.3530   42.0790   56.4100 C.3    61  PRO61       0.0208
     75  CD        25.9290   40.7040   56.4130 C.3    61  PRO61       0.0893
     76  N         27.6930   42.7360   60.3090 N.am   62  GLY62      -0.1943
     77  CA        27.8960   42.6550   61.7420 C.3    62  GLY62       0.2014
     78  C         28.4870   41.3980   62.3300 C.2    62  GLY62       0.2639
     79  O         27.8910   40.8020   63.2340 O.2    62  GLY62      -0.2714
     80  N         29.6590   40.9980   61.8360 N.am   63  ILE63      -0.1963
     81  CA        30.3230   39.8070   62.3440 C.3    63  ILE63       0.1727
     82  C         31.7180   40.1070   62.8880 C.2    63  ILE63       0.2617
     83  O         32.4510   39.1940   63.2690 O.2    63  ILE63      -0.2715
     84  CB        30.3770   38.6920   61.2700 C.3    63  ILE63       0.0290
     85  CG1       31.0830   39.1730   60.0060 C.3    63  ILE63       0.0022
     86  CG2       28.9770   38.2800   60.9130 C.3    63  ILE63       0.0023
     87  CD1       32.5810   39.2690   60.1300 C.3    63  ILE63       0.0001
     88  N         32.0840   41.3880   62.9250 N.am   64  GLY64      -0.1940
     89  CA        33.3760   41.7720   63.4760 C.3    64  GLY64       0.2014
     90  C         34.5130   42.1920   62.5590 C.2    64  GLY64       0.2639
     91  O         35.6100   42.4810   63.0400 O.2    64  GLY64      -0.2714
     92  N         34.2740   42.2300   61.2530 N.am   65  LYS65      -0.1963
     93  CA        35.3090   42.6230   60.3060 C.3    65  LYS65       0.1728
     94  C         35.9040   43.9910   60.6320 C.2    65  LYS65       0.2617
     95  O         37.1090   44.1260   60.8290 O.2    65  LYS65      -0.2715
     96  CB        34.7400   42.6380   58.8940 C.3    65  LYS65       0.0311
     97  CG        34.4800   41.2650   58.3220 C.3    65  LYS65       0.0038
     98  CD        33.8650   41.3380   56.9240 C.3    65  LYS65       0.0206
     99  CE        32.3410   41.4310   56.9680 C.3    65  LYS65       0.1093
    100  NZ        31.8550   42.5110   57.8620 N.3    65  LYS65      -0.1314
    101  N         35.0560   45.0080   60.6900 N.am   66  THR66      -0.1937
    102  CA        35.5230   46.3500   60.9910 C.3    66  THR66       0.2028
    103  C         36.1490   46.4030   62.3930 C.2    66  THR66       0.2642
    104  O         37.0610   47.1970   62.6380 O.2    66  THR66      -0.2714
    105  CB        34.3520   47.3920   60.8590 C.3    66  THR66       0.1808
    106  OG1       33.9950   47.5370   59.4750 O.3    66  THR66      -0.2208
    107  CG2       34.7520   48.7640   61.4130 C.3    66  THR66       0.0379
    108  N         35.6810   45.5600   63.3100 N.am   67  THR67      -0.1950
    109  CA        36.2380   45.5760   64.6560 C.3    67  THR67       0.1897
    110  C         37.6370   44.9760   64.6590 C.2    67  THR67       0.2313
    111  O         38.5560   45.5230   65.2650 O.2    67  THR67      -0.2863
    112  CB        35.3600   44.7930   65.6540 C.3    67  THR67       0.1794
    113  OG1       34.0010   45.2170   65.5290 O.3    67  THR67      -0.2208
    114  CG2       35.8030   45.0730   67.0840 C.3    67  THR67       0.0378
    115  N         37.5390   50.7400   54.1150 N.3   126  ASP126     -0.1225
    116  CA        36.3520   49.9850   54.5090 C.3   126  ASP126      0.1805
    117  C         35.2000   50.0720   53.5040 C.2   126  ASP126      0.2597
    118  O         35.2110   50.8880   52.5870 O.2   126  ASP126     -0.2718
    119  CB        35.8630   50.4800   55.8780 C.3   126  ASP126      0.1424
    120  CG        35.1560   49.3950   56.6860 C.2   126  ASP126      0.3668
    121  OD1       34.5900   48.4580   56.0860 O.co2 126  ASP126     -0.2456
    122  OD2       35.1560   49.4880   57.9330 O.co2 126  ASP126     -0.2456
    123  N         34.2080   49.2110   53.6940 N.am  127  GLU127     -0.1979
    124  CA        33.0200   49.1830   52.8570 C.3   127  GLU127      0.1602
    125  C         33.3660   49.4660   51.4010 C.2   127  GLU127      0.2287
    126  O         32.8610   50.4130   50.8020 O.2   127  GLU127     -0.2864
    127  CB        32.0280   50.2170   53.3990 C.3   127  GLU127      0.0415
    128  CG        31.6950   50.0030   54.8840 C.3   127  GLU127      0.1163
    129  CD        31.1910   51.2560   55.5950 C.2   127  GLU127      0.3649
    130  OE1       30.8560   51.1590   56.7980 O.co2 127  GLU127     -0.2457
    131  OE2       31.1340   52.3330   54.9650 O.co2 127  GLU127     -0.2457
    132  N         37.8440   46.0140   53.4820 N.3   156  ILE156     -0.1245
    133  CA        36.7130   45.2210   53.9610 C.3   156  ILE156      0.1561
    134  C         35.5200   45.3220   53.0100 C.2   156  ILE156      0.2260
    135  O         35.2620   46.3780   52.4390 O.2   156  ILE156     -0.2867
    136  CB        36.2330   45.6910   55.3660 C.3   156  ILE156      0.0252
    137  CG1       37.3740   45.6350   56.3860 C.3   156  ILE156      0.0019
    138  CG2       35.1100   44.7930   55.8540 C.3   156  ILE156      0.0019
    139  CD1       38.3740   46.7530   56.2730 C.3   156  ILE156      0.0001
    140  N         31.4690   43.0570   51.8810 N.3   158  ASN158     -0.1240
    141  CA        30.5250   42.0120   52.2660 C.3   158  ASN158      0.1653
    142  C         30.4690   40.9060   51.2280 C.2   158  ASN158      0.2266
    143  O         30.3120   39.7350   51.5730 O.2   158  ASN158     -0.2867
    144  CB        29.1160   42.5790   52.4610 C.3   158  ASN158      0.1155
    145  CG        29.0220   43.5190   53.6420 C.2   158  ASN158      0.2627
    146  OD1       29.5010   44.6490   53.5890 O.2   158  ASN158     -0.2716
    147  ND2       28.4060   43.0530   54.7200 N.am  158  ASN158     -0.0877
    148  N         28.3940   35.2910   74.6160 N.3   188  ARG188     -0.1245
    149  CA        28.5180   36.7410   74.6110 C.3   188  ARG188      0.1563
    150  C         27.2250   37.4010   75.0870 C.2   188  ARG188      0.2260
    151  O         27.2390   38.2470   75.9830 O.2   188  ARG188     -0.2867
    152  CB        28.8570   37.2300   73.2000 C.3   188  ARG188      0.0307
    153  CG        29.2760   38.6960   73.1280 C.3   188  ARG188      0.0489
    154  CD        30.6670   38.9120   73.7030 C.3   188  ARG188      0.2205
    155  NE        31.0280   40.3240   73.7160 N.pl3 188  ARG188     -0.0865
    156  CZ        32.2420   40.7800   74.0000 C.cat 188  ARG188      0.5346
    157  NH1       33.2170   39.9310   74.2910 N.pl3 188  ARG188      0.1354
    158  NH2       32.4790   42.0860   74.0060 N.pl3 188  ARG188      0.1354
    159  N         25.8200   39.4200   64.8630 N.3   216  ILE216     -0.1231
    160  CA        26.0610   39.7650   66.2480 C.3   216  ILE216      0.1692
    161  C         25.6920   41.2150   66.5540 C.2   216  ILE216      0.2591
    162  O         25.3190   41.5440   67.6780 O.2   216  ILE216     -0.2718
    163  CB        27.5280   39.5010   66.6260 C.3   216  ILE216      0.0266
    164  CG1       27.8340   38.0170   66.4320 C.3   216  ILE216      0.0019
    165  CG2       27.7830   39.9230   68.0660 C.3   216  ILE216      0.0020
    166  CD1       29.2870   37.6310   66.6440 C.3   216  ILE216      0.0001
    167  N         25.7820   42.0840   65.5580 N.am  217  ARG217     -0.1980
    168  CA        25.4320   43.4810   65.7710 C.3   217  ARG217      0.1597
    169  C         23.9290   43.5910   65.9700 C.2   217  ARG217      0.2287
    170  O         23.4540   44.3300   66.8370 O.2   217  ARG217     -0.2864
    171  CB        25.8290   44.3190   64.5620 C.3   217  ARG217      0.0334
    172  CG        25.6890   45.8170   64.7760 C.3   217  ARG217      0.0492
    173  CD        25.1750   46.4670   63.5190 C.3   217  ARG217      0.2205
    174  NE        26.0120   46.1640   62.3590 N.pl3 217  ARG217     -0.0865
    175  CZ        27.1560   46.7770   62.0910 C.cat 217  ARG217      0.5346
    176  NH1       27.5960   47.7260   62.9070 N.pl3 217  ARG217      0.1354
    177  NH2       27.8410   46.4570   61.0050 N.pl3 217  ARG217      0.1354
    178  N         22.5870   42.1230   69.3880 N.3   220  ILE220     -0.1245
    179  CA        22.8450   43.0970   70.4410 C.3   220  ILE220      0.1561
    180  C         21.7820   44.2060   70.4240 C.2   220  ILE220      0.2260
    181  O         21.2230   44.5450   71.4690 O.2   220  ILE220     -0.2867
    182  CB        24.2350   43.7260   70.2880 C.3   220  ILE220      0.0252
    183  CG1       25.2900   42.6310   70.2310 C.3   220  ILE220      0.0019
    184  CG2       24.5300   44.6330   71.4730 C.3   220  ILE220      0.0019
    185  CD1       25.3320   41.7760   71.4770 C.3   220  ILE220      0.0001
@<TRIPOS>BOND
     1   126   125    2
     2   142   143    2
     3   142   141    1
     4   125   124    1
     5   140   141    1
     6   141   144    1
     7   135   134    2
     8   144   145    1
     9   118   117    2
    10   124   127    1
    11   124   123    1
    12   134   133    1
    13   127   128    1
    14   132   133    1
    15   117   123   am
    16   117   116    1
    17   146   145    2
    18   145   147   am
    19   133   136    1
    20   115   116    1
    21   116   119    1
    22   128   129    1
    23   131   129   ar
    24   136   138    1
    25   136   137    1
    26   129   130   ar
    27   119   120    1
    28   121   120   ar
    29   139   137    1
    30    74    75    1
    31    74    73    1
    32    75    69    1
    33   120   122   ar
    34    98    99    1
    35    98    97    1
    36    99   100    1
    37    69    70    1
    38    73    70    1
    39    70    71    1
    40    97    96    1
    41    96    93    1
    42   106   105    1
    43    71    72    2
    44    71    76   am
    45    85    87    1
    46    85    84    1
    47    93    94    1
    48    93    92    1
    49    76    77    1
    50    94   101   am
    51    94    95    2
    52   101   102    1
    53   105   102    1
    54   105   107    1
    55    86    84    1
    56   102   103    1
    57   177   175    1
    58    67    66    2
    59    92    90   am
    60    84    81    1
    61    77    78    1
    62    80    78   am
    63    80    81    1
    64    66    65    1
    65    66    68   am
    66   175   174    2
    67   175   176    1
    68    78    79    2
    69    81    82    1
    70   174   173    1
    71   103   104    2
    72   103   108   am
    73    65    62    1
    74    90    91    2
    75    90    89    1
    76    82    88   am
    77    82    83    2
    78    88    89    1
    79    64    63    2
    80    62    63    1
    81    62    61    1
    82   108   109    1
    83   173   172    1
    84   171   172    1
    85   171   168    1
    86   109   110    1
    87   109   112    1
    88   110   111    2
    89   159   160    1
    90   113   112    1
    91   167   168    1
    92   167   161   am
    93   112   114    1
    94   168   169    1
    95   169   170    2
    96   160   161    1
    97   160   163    1
    98    53    52    1
    99   164   163    1
   100   164   166    1
   101   161   162    2
   102   163   165    1
   103    58    57    2
   104    52    54    1
   105    52    49    1
   106    57    56    1
   107     7     5    1
   108     6     5    1
   109    51    50    2
   110     5     2    1
   111    50    49    1
   112    50    55   am
   113    49    48    1
   114    56    55    1
   115    56    59    1
   116   178   179    1
   117    59    60    1
   118    14    12    1
   119    37    38    1
   120    37    36    1
   121    38    32    1
   122     4     3    2
   123     2     3    1
   124     2     1    1
   125    48    41   am
   126   183   182    1
   127   183   185    1
   128   182   179    1
   129   182   184    1
   130    36    33    1
   131     3     8   am
   132   180   179    1
   133   180   181    2
   134    31    28    1
   135     8     9    1
   136     9    12    1
   137     9    10    1
   138    12    13    1
   139    42    41    2
   140    32    33    1
   141    32    29   am
   142    35    34    2
   143    41    40    1
   144    28    29    1
   145    28    27    1
   146    33    34    1
   147    29    30    2
   148    39    40    1
   149    10    11    2
   150    27    17   am
   151    40    43    1
   152    18    17    2
   153   153   152    1
   154   153   154    1
   155    17    16    1
   156   152   149    1
   157    43    44    1
   158   154   155    1
   159   155   156    2
   160   156   158    1
   161   156   157    1
   162    15    16    1
   163    16    19    1
   164   149   148    1
   165   149   150    1
   166    19    20    1
   167    44    45    1
   168    46    45    2
   169   150   151    2
   170    45    47   am
   171    20    21   ar
   172    20    22   ar
   173    21    23   ar
   174    22    24   ar
   175    23    25   ar
   176    24    25   ar
   177    25    26    1
