@<TRIPOS>MOLECULE
tmp/1sxjD01.pdb
 204 197 0 0 0
SMALL
GASTEIGER

@<TRIPOS>ATOM
      1  N         14.5780   35.3690   -1.4150 N.3     3  VAL3       -0.1231
      2  CA        13.6940   35.8680   -0.3740 C.3     3  VAL3        0.1692
      3  C         13.6600   37.3910   -0.4400 C.2     3  VAL3        0.2591
      4  O         12.5970   37.9900   -0.5830 O.2     3  VAL3       -0.2718
      5  CB        14.1770   35.4350    1.0220 C.3     3  VAL3        0.0266
      6  CG1       13.1700   35.8650    2.0730 C.3     3  VAL3        0.0020
      7  CG2       14.3790   33.9290    1.0570 C.3     3  VAL3        0.0020
      8  N         14.8320   38.0100   -0.3440 N.am    4  GLU4       -0.1979
      9  CA        14.9360   39.4630   -0.3990 C.3     4  GLU4        0.1602
     10  C         14.9880   39.9450   -1.8420 C.2     4  GLU4        0.2287
     11  O         14.6060   41.0750   -2.1400 O.2     4  GLU4       -0.2864
     12  CB        16.1880   39.9320    0.3430 C.3     4  GLU4        0.0415
     13  CG        16.1550   39.6800    1.8440 C.3     4  GLU4        0.1163
     14  CD        15.0450   40.4440    2.5410 C.2     4  GLU4        0.3649
     15  OE1       15.0210   41.6890    2.4340 O.co2   4  GLU4       -0.2457
     16  OE2       14.1970   39.8020    3.1970 O.co2   4  GLU4       -0.2457
     17  N         13.1890   38.9230   -4.0900 N.3     6  TYR6       -0.1227
     18  CA        11.8190   38.8910   -4.5960 C.3     6  TYR6        0.1736
     19  C         10.8550   39.6280   -3.6750 C.2     6  TYR6        0.2595
     20  O          9.6520   39.3580   -3.6750 O.2     6  TYR6       -0.2718
     21  CB        11.3420   37.4450   -4.7830 C.3     6  TYR6        0.0548
     22  CG        11.9410   36.7540   -5.9850 C.ar    6  TYR6       -0.0200
     23  CD1       13.3060   36.4840   -6.0520 C.ar    6  TYR6       -0.0009
     24  CD2       11.1440   36.3860   -7.0670 C.ar    6  TYR6       -0.0009
     25  CE1       13.8660   35.8650   -7.1720 C.ar    6  TYR6        0.0417
     26  CE2       11.6910   35.7660   -8.1910 C.ar    6  TYR6        0.0417
     27  CZ        13.0530   35.5080   -8.2370 C.ar    6  TYR6        0.1957
     28  OH        13.6030   34.9000   -9.3450 O.3     6  TYR6       -0.2866
     29  N         11.3890   40.5560   -2.8870 N.am    7  ARG7       -0.1966
     30  CA        10.5680   41.3390   -1.9720 C.3     7  ARG7        0.1714
     31  C          9.7230   42.3210   -2.7730 C.2     7  ARG7        0.2458
     32  O         10.2550   43.1710   -3.4880 O.2     7  ARG7       -0.2730
     33  CB        11.4460   42.1110   -0.9810 C.3     7  ARG7        0.0347
     34  CG        10.6660   43.0470   -0.0590 C.3     7  ARG7        0.0492
     35  CD        11.5810   43.8620    0.8550 C.3     7  ARG7        0.2205
     36  NE        12.1840   43.0640    1.9220 N.pl3   7  ARG7       -0.0865
     37  CZ        11.5060   42.5180    2.9280 C.cat   7  ARG7        0.5346
     38  NH1       10.1930   42.6770    3.0140 N.pl3   7  ARG7        0.1354
     39  NH2       12.1420   41.8110    3.8520 N.pl3   7  ARG7        0.1354
     40  N          8.3910   42.2090   -2.6700 N.am    8  PRO8       -0.2727
     41  CA         7.4680   43.0920   -3.3850 C.3     8  PRO8        0.1402
     42  C          7.9410   44.5380   -3.3610 C.2     8  PRO8        0.2269
     43  O          8.0230   45.1540   -2.3000 O.2     8  PRO8       -0.2865
     44  CB         6.1670   42.8950   -2.6230 C.3     8  PRO8        0.0296
     45  CG         6.2210   41.4490   -2.3000 C.3     8  PRO8        0.0237
     46  CD         7.6470   41.2640   -1.8190 C.3     8  PRO8        0.0939
     47  N          2.6140   43.8790   -5.7890 N.3    13  GLU13      -0.1231
     48  CA         3.4150   42.6650   -5.6500 C.3    13  GLU13       0.1699
     49  C          2.9660   41.7580   -4.5050 C.2    13  GLU13       0.2592
     50  O          2.9700   40.5330   -4.6370 O.2    13  GLU13      -0.2718
     51  CB         4.8860   43.0350   -5.4490 C.3    13  GLU13       0.0402
     52  CG         5.5440   43.7090   -6.6370 C.3    13  GLU13       0.1161
     53  CD         5.6980   42.7750   -7.8180 C.2    13  GLU13       0.3649
     54  OE1        4.6660   42.3110   -8.3480 O.co2  13  GLU13      -0.2457
     55  OE2        6.8520   42.5030   -8.2130 O.co2  13  GLU13      -0.2457
     56  N          2.5920   42.3600   -3.3810 N.am   14  VAL14      -0.1966
     57  CA         2.1440   41.5970   -2.2220 C.3    14  VAL14       0.1727
     58  C          0.7230   41.0750   -2.4190 C.2    14  VAL14       0.2617
     59  O         -0.2530   41.8020   -2.2370 O.2    14  VAL14      -0.2715
     60  CB         2.2080   42.4560   -0.9330 C.3    14  VAL14       0.0290
     61  CG1        1.5680   43.8080   -1.1710 C.3    14  VAL14       0.0023
     62  CG2        1.5090   41.7390    0.2080 C.3    14  VAL14       0.0023
     63  N          0.6120   39.8070   -2.7990 N.am   15  THR15      -0.1937
     64  CA        -0.6900   39.1940   -3.0200 C.3    15  THR15       0.2028
     65  C         -1.2700   38.6880   -1.7060 C.2    15  THR15       0.2642
     66  O         -2.1060   39.3500   -1.0930 O.2    15  THR15      -0.2714
     67  CB        -0.5940   38.0130   -4.0120 C.3    15  THR15       0.1808
     68  OG1        0.3490   37.0500   -3.5250 O.3    15  THR15      -0.2208
     69  CG2       -0.1540   38.5030   -5.3860 C.3    15  THR15       0.0379
     70  N         -0.8100   37.5110   -1.2900 N.am   16  ALA16      -0.1963
     71  CA        -1.2440   36.8600   -0.0570 C.3    16  ALA16       0.1728
     72  C         -2.3040   37.6190    0.7410 C.2    16  ALA16       0.2616
     73  O         -3.4830   37.2640    0.7170 O.2    16  ALA16      -0.2715
     74  CB        -0.0350   36.5860    0.8200 C.3    16  ALA16       0.0334
     75  N         -1.8790   38.6610    1.4480 N.am   17  GLN17      -0.1977
     76  CA        -2.7950   39.4550    2.2590 C.3    17  GLN17       0.1601
     77  C         -3.2460   40.7230    1.5370 C.2    17  GLN17       0.2287
     78  O         -2.4990   41.6960    1.4460 O.2    17  GLN17      -0.2864
     79  CB        -2.1300   39.8240    3.5890 C.3    17  GLN17       0.0394
     80  CG        -3.0720   40.5020    4.5670 C.3    17  GLN17       0.0908
     81  CD        -4.2390   39.6140    4.9660 C.2    17  GLN17       0.2608
     82  OE1       -5.2080   40.0780    5.5670 O.2    17  GLN17      -0.2717
     83  NE2       -4.1460   38.3290    4.6390 N.am   17  GLN17      -0.0878
     84  N          4.5110   35.2250   11.1850 N.3    42  PRO42      -0.2102
     85  CA         5.7950   35.5390   10.5430 C.3    42  PRO42       0.1504
     86  C          5.7830   35.5000    9.0080 C.2    42  PRO42       0.2576
     87  O          5.1430   34.6440    8.3940 O.2    42  PRO42      -0.2718
     88  CB         6.7390   34.4920   11.1340 C.3    42  PRO42       0.0282
     89  CG         6.1370   34.2180   12.4860 C.3    42  PRO42       0.0208
     90  CD         4.6670   34.1330   12.1600 C.3    42  PRO42       0.0893
     91  N          6.4970   36.4430    8.4030 N.am   43  GLY43      -0.1943
     92  CA         6.5900   36.5090    6.9570 C.3    43  GLY43       0.2014
     93  C          5.2850   36.5010    6.1860 C.2    43  GLY43       0.2640
     94  O          5.1550   35.7800    5.1980 O.2    43  GLY43      -0.2714
     95  N          4.3170   37.3000    6.6180 N.am   44  THR44      -0.1936
     96  CA         3.0360   37.3620    5.9240 C.3    44  THR44       0.2028
     97  C          2.9720   38.5750    5.0000 C.2    44  THR44       0.2643
     98  O          1.9540   38.8230    4.3510 O.2    44  THR44      -0.2714
     99  CB         1.8660   37.4090    6.9170 C.3    44  THR44       0.1808
    100  OG1        2.0990   38.4400    7.8840 O.3    44  THR44      -0.2208
    101  CG2        1.7210   36.0670    7.6200 C.3    44  THR44       0.0379
    102  N          4.0660   39.3290    4.9520 N.am   45  GLY45      -0.1939
    103  CA         4.1320   40.4900    4.0850 C.3    45  GLY45       0.2014
    104  C          4.0250   41.8470    4.7480 C.2    45  GLY45       0.2639
    105  O          3.9520   42.8670    4.0560 O.2    45  GLY45      -0.2714
    106  N          4.0350   41.8730    6.0790 N.am   46  LYS46      -0.1963
    107  CA         3.9140   43.1260    6.8190 C.3    46  LYS46       0.1728
    108  C          4.9880   44.1810    6.5210 C.2    46  LYS46       0.2617
    109  O          4.6720   45.2710    6.0390 O.2    46  LYS46      -0.2715
    110  CB         3.8610   42.8360    8.3200 C.3    46  LYS46       0.0311
    111  CG         2.6080   42.0890    8.7420 C.3    46  LYS46       0.0038
    112  CD         2.4660   42.0440   10.2500 C.3    46  LYS46       0.0206
    113  CE         3.6080   41.2880   10.9070 C.3    46  LYS46       0.1093
    114  NZ         3.5660   39.8350   10.5930 N.3    46  LYS46      -0.1314
    115  N          6.2480   43.8620    6.8010 N.am   47  THR47      -0.1937
    116  CA         7.3470   44.8000    6.5580 C.3    47  THR47       0.2028
    117  C          7.4370   45.2020    5.0870 C.2    47  THR47       0.2642
    118  O          7.9260   46.2820    4.7530 O.2    47  THR47      -0.2714
    119  CB         8.7020   44.1920    6.9560 C.3    47  THR47       0.1808
    120  OG1        8.5930   43.5810    8.2470 O.3    47  THR47      -0.2208
    121  CG2        9.7770   45.2740    6.9960 C.3    47  THR47       0.0379
    122  N          6.9750   44.3170    4.2120 N.am   48  SER48      -0.1949
    123  CA         7.0040   44.5710    2.7790 C.3    48  SER48       0.1924
    124  C          5.9670   45.6240    2.4300 C.2    48  SER48       0.2314
    125  O          6.2370   46.5620    1.6710 O.2    48  SER48      -0.2863
    126  CB         6.6980   43.2840    2.0110 C.3    48  SER48       0.2116
    127  OG         7.6070   42.2560    2.3560 O.3    48  SER48      -0.2180
    128  N          8.7410   45.3890   14.3660 N.3   116  GLU116     -0.1245
    129  CA         9.0700   44.5230   15.4880 C.3   116  GLU116      0.1567
    130  C          8.7650   45.2880   16.7770 C.2   116  GLU116      0.2260
    131  O          9.4090   45.0790   17.8060 O.2   116  GLU116     -0.2867
    132  CB        10.5580   44.1390   15.4490 C.3   116  GLU116      0.0388
    133  CG        11.2280   44.2480   14.0710 C.3   116  GLU116      0.1160
    134  CD        10.5770   43.3770   13.0090 C.2   116  GLU116      0.3649
    135  OE1       11.0000   43.4510   11.8340 O.co2 116  GLU116     -0.2457
    136  OE2        9.6450   42.6170   13.3420 O.co2 116  GLU116     -0.2457
    137  N          4.5000   47.4680   13.6960 N.3   144  ILE144     -0.1231
    138  CA         4.3330   46.1110   13.1850 C.3   144  ILE144      0.1692
    139  C          4.6640   45.1070   14.2820 C.2   144  ILE144      0.2592
    140  O          5.5250   45.3660   15.1220 O.2   144  ILE144     -0.2718
    141  CB         5.2550   45.8420   11.9570 C.3   144  ILE144      0.0266
    142  CG1        4.9790   46.8560   10.8450 C.3   144  ILE144      0.0019
    143  CG2        5.0030   44.4490   11.4080 C.3   144  ILE144      0.0020
    144  CD1        5.4410   48.2680   11.1540 C.3   144  ILE144      0.0001
    145  N          3.9790   43.9670   14.2770 N.am  145  CYS145     -0.1956
    146  CA         4.2110   42.9340   15.2810 C.3   145  CYS145      0.1843
    147  C          3.5540   41.6240   14.8720 C.2   145  CYS145      0.2625
    148  O          2.8670   41.5540   13.8520 O.2   145  CYS145     -0.2714
    149  CB         3.6530   43.3770   16.6370 C.3   145  CYS145      0.0997
    150  SG         1.8510   43.6740   16.6730 S.3   145  CYS145     -0.0797
    151  N          3.7570   40.5890   15.6770 N.am  146  ASN146     -0.1972
    152  CA         3.1810   39.2840   15.3870 C.3   146  ASN146      0.1688
    153  C          2.0270   38.9880   16.3340 C.2   146  ASN146      0.2292
    154  O          1.1470   38.1760   16.0380 O.2   146  ASN146     -0.2864
    155  CB         4.2510   38.2050   15.5140 C.3   146  ASN146      0.1181
    156  CG         5.4500   38.4780   14.6350 C.2   146  ASN146      0.2629
    157  OD1        6.1710   39.4570   14.8330 O.2   146  ASN146     -0.2716
    158  ND2        5.6670   37.6170   13.6510 N.am  146  ASN146     -0.0877
    159  N         -0.7320   32.7590    5.0020 N.3   167  LEU167     -0.1245
    160  CA        -0.7510   32.6320    3.5520 C.3   167  LEU167      0.1561
    161  C         -1.3260   31.3000    3.0920 C.2   167  LEU167      0.2260
    162  O         -0.6400   30.2760    3.0790 O.2   167  LEU167     -0.2867
    163  CB         0.6580   32.8340    2.9960 C.3   167  LEU167      0.0270
    164  CG         1.3910   34.0600    3.5560 C.3   167  LEU167      0.0019
    165  CD1        2.5340   34.4070    2.6370 C.3   167  LEU167      0.0001
    166  CD2        0.4530   35.2520    3.6770 C.3   167  LEU167      0.0001
    167  N          2.0890   32.8770   -6.0570 N.3   175  ARG175     -0.1245
    168  CA         3.3490   33.5950   -5.8980 C.3   175  ARG175      0.1563
    169  C          4.5540   32.6580   -5.9030 C.2   175  ARG175      0.2260
    170  O          5.6830   33.0970   -6.1090 O.2   175  ARG175     -0.2867
    171  CB         3.3330   34.4070   -4.5990 C.3   175  ARG175      0.0307
    172  CG         4.6270   35.1600   -4.3110 C.3   175  ARG175      0.0489
    173  CD         4.9280   36.1940   -5.3840 C.3   175  ARG175      0.2205
    174  NE         6.2370   36.8130   -5.1890 N.pl3 175  ARG175     -0.0865
    175  CZ         6.7380   37.7650   -5.9700 C.cat 175  ARG175      0.5346
    176  NH1        6.0380   38.2120   -7.0040 N.pl3 175  ARG175      0.1354
    177  NH2        7.9410   38.2660   -5.7220 N.pl3 175  ARG175      0.1354
    178  N          5.7080   32.6770    4.2730 N.3   203  LEU203     -0.1231
    179  CA         6.1610   32.6040    2.8940 C.3   203  LEU203      0.1693
    180  C          7.6810   32.6740    2.8290 C.2   203  LEU203      0.2591
    181  O          8.2960   31.9970    2.0080 O.2   203  LEU203     -0.2718
    182  CB         5.5430   33.7420    2.0770 C.3   203  LEU203      0.0284
    183  CG         5.4850   33.5740    0.5560 C.3   203  LEU203      0.0019
    184  CD1        4.5360   34.5960   -0.0520 C.3   203  LEU203      0.0001
    185  CD2        6.8700   33.7240   -0.0170 C.3   203  LEU203      0.0001
    186  N          8.2880   33.4820    3.6960 N.am  204  ARG204     -0.1980
    187  CA         9.7430   33.6010    3.7000 C.3   204  ARG204      0.1597
    188  C         10.3650   32.2170    3.7840 C.2   204  ARG204      0.2287
    189  O         11.2260   31.8640    2.9780 O.2   204  ARG204     -0.2864
    190  CB        10.2470   34.4370    4.8840 C.3   204  ARG204      0.0334
    191  CG        11.7720   34.5700    4.8840 C.3   204  ARG204      0.0492
    192  CD        12.3700   35.1520    6.1650 C.3   204  ARG204      0.2205
    193  NE        12.0070   36.5480    6.3910 N.pl3 204  ARG204     -0.0865
    194  CZ        10.9270   36.9380    7.0600 C.cat 204  ARG204      0.5346
    195  NH1       10.1000   36.0340    7.5760 N.pl3 204  ARG204      0.1354
    196  NH2       10.6720   38.2320    7.2140 N.pl3 204  ARG204      0.1354
    197  N          9.8490   30.0930    0.8120 N.3   207  ILE207     -0.1245
    198  CA        10.7440   30.4500   -0.2780 C.3   207  ILE207      0.1561
    199  C         12.1720   30.0300    0.0400 C.2   207  ILE207      0.2260
    200  O         12.9510   29.7300   -0.8610 O.2   207  ILE207     -0.2867
    201  CB        10.7170   31.9690   -0.5480 C.3   207  ILE207      0.0252
    202  CG1        9.4990   32.3170   -1.4060 C.3   207  ILE207      0.0019
    203  CG2       12.0180   32.4080   -1.2060 C.3   207  ILE207      0.0019
    204  CD1        9.4670   33.7580   -1.8920 C.3   207  ILE207      0.0001
@<TRIPOS>BOND
     1    28    27    1
     2    54    53   ar
     3    27    26   ar
     4    27    25   ar
     5    55    53   ar
     6    26    24   ar
     7    53    52    1
     8    25    23   ar
     9    24    22   ar
    10   176   175    1
    11    52    51    1
    12   170   169    2
    13   167   168    1
    14    23    22   ar
    15    22    21    1
    16   175   177    1
    17   175   174    2
    18   169   168    1
    19   168   171    1
    20    47    48    1
    21    48    51    1
    22    48    49    1
    23    69    67    1
    24   173   174    1
    25   173   172    1
    26    21    18    1
    27    50    49    2
    28   171   172    1
    29    18    17    1
    30    18    19    1
    31    49    56   am
    32    67    68    1
    33    67    64    1
    34    20    19    2
    35    19    29   am
    36    32    31    2
    37    41    42    1
    38    41    40    1
    39    41    44    1
    40    56    57    1
    41    42    43    2
    42    64    63    1
    43    64    65    1
    44    29    30    1
    45    63    58   am
    46    31    40   am
    47    31    30    1
    48    40    46    1
    49    44    45    1
    50    58    59    2
    51    58    57    1
    52    45    46    1
    53    57    60    1
    54    11    10    2
    55    30    33    1
    56   204   202    1
    57    10     9    1
    58    65    70   am
    59    65    66    2
    60     1     2    1
    61   202   201    1
    62    70    71    1
    63   203   201    1
    64    61    60    1
    65    33    34    1
    66    60    62    1
    67   200   199    2
    68     4     3    2
    69   201   198    1
    70     3     2    1
    71     3     8   am
    72     9     8    1
    73     9    12    1
    74     2     5    1
    75   198   199    1
    76   198   197    1
    77    34    35    1
    78    71    72    1
    79    71    74    1
    80   184   183    1
    81   185   183    1
    82    12    13    1
    83   183   182    1
    84    73    72    2
    85    72    75   am
    86    35    36    1
    87     5     7    1
    88     5     6    1
    89    78    77    2
    90    75    76    1
    91    77    76    1
    92   125   124    2
    93    13    14    1
    94    36    37    2
    95   181   180    2
    96   126   127    1
    97   126   123    1
    98   182   179    1
    99    76    79    1
   100   124   123    1
   101    15    14   ar
   102    14    16   ar
   103   165   164    1
   104   123   122    1
   105   180   179    1
   106   180   186   am
   107   179   178    1
   108    37    38    1
   109    37    39    1
   110   189   188    2
   111   163   160    1
   112   163   164    1
   113   162   161    2
   114   161   160    1
   115   160   159    1
   116   164   166    1
   117    79    80    1
   118   186   187    1
   119   187   188    1
   120   187   190    1
   121   105   104    2
   122   103   104    1
   123   103   102    1
   124   122   117   am
   125    98    97    2
   126    80    81    1
   127    83    81   am
   128   104   106   am
   129   118   117    2
   130   191   190    1
   131   191   192    1
   132   102    97   am
   133    81    82    2
   134    97    96    1
   135   117   116    1
   136    94    93    2
   137    96    95    1
   138    96    99    1
   139   109   108    2
   140   106   107    1
   141   192   193    1
   142    93    95   am
   143    93    92    1
   144   193   194    2
   145   108   115   am
   146   108   107    1
   147   116   115    1
   148   116   119    1
   149   107   110    1
   150    99   101    1
   151    99   100    1
   152   119   121    1
   153   119   120    1
   154    92    91    1
   155   194   196    1
   156   194   195    1
   157   110   111    1
   158    87    86    2
   159    91    86   am
   160   111   112    1
   161    86    85    1
   162   112   113    1
   163    85    88    1
   164    85    84    1
   165   114   113    1
   166   142   144    1
   167   142   141    1
   168    88    89    1
   169    84    90    1
   170   143   141    1
   171   135   134   ar
   172   141   138    1
   173    90    89    1
   174   134   136   ar
   175   134   133    1
   176   138   137    1
   177   138   139    1
   178   158   156   am
   179   148   147    2
   180   133   132    1
   181   145   139   am
   182   145   146    1
   183   139   140    2
   184   128   129    1
   185   156   157    2
   186   156   155    1
   187   147   146    1
   188   147   151   am
   189   146   149    1
   190   152   155    1
   191   152   151    1
   192   152   153    1
   193   132   129    1
   194   129   130    1
   195   154   153    2
   196   149   150    1
   197   130   131    2
