@<TRIPOS>MOLECULE
tmp/1sxjB01.pdb
 179 172 0 0 0
SMALL
GASTEIGER

@<TRIPOS>ATOM
      1  N         -7.4720   63.9400   56.3480 N.3     6  VAL6       -0.1245
      2  CA        -6.3860   63.0060   56.6360 C.3     6  VAL6        0.1561
      3  C         -5.2230   63.7910   57.2140 C.2     6  VAL6        0.2260
      4  O         -4.3810   63.2500   57.9300 O.2     6  VAL6       -0.2867
      5  CB        -5.9020   62.2940   55.3640 C.3     6  VAL6        0.0252
      6  CG1       -7.0390   61.5120   54.7570 C.3     6  VAL6        0.0019
      7  CG2       -5.3650   63.3080   54.3640 C.3     6  VAL6        0.0019
      8  N         -6.8760   65.8600   60.7730 N.3     9  TYR9       -0.1227
      9  CA        -7.0070   64.9870   61.9280 C.3     9  TYR9        0.1736
     10  C         -5.8660   63.9920   62.0640 C.2     9  TYR9        0.2595
     11  O         -6.0470   62.8860   62.5810 O.2     9  TYR9       -0.2718
     12  CB        -8.3550   64.2710   61.8820 C.3     9  TYR9        0.0548
     13  CG        -9.5030   65.2490   61.8650 C.ar    9  TYR9       -0.0200
     14  CD1       -9.8490   65.9210   60.6970 C.ar    9  TYR9       -0.0009
     15  CD2      -10.1810   65.5750   63.0380 C.ar    9  TYR9       -0.0009
     16  CE1      -10.8330   66.9030   60.6980 C.ar    9  TYR9        0.0417
     17  CE2      -11.1660   66.5570   63.0520 C.ar    9  TYR9        0.0417
     18  CZ       -11.4860   67.2200   61.8790 C.ar    9  TYR9        0.1957
     19  OH       -12.4300   68.2240   61.8910 O.3     9  TYR9       -0.2866
     20  N         -4.6880   64.3990   61.5950 N.am   10  ARG10      -0.1966
     21  CA        -3.4900   63.5690   61.6890 C.3    10  ARG10       0.1714
     22  C         -3.0350   63.5790   63.1470 C.2    10  ARG10       0.2458
     23  O         -2.8390   64.6440   63.7390 O.2    10  ARG10      -0.2730
     24  CB        -2.3670   64.1310   60.8060 C.3    10  ARG10       0.0347
     25  CG        -1.0080   63.4760   61.0530 C.3    10  ARG10       0.0492
     26  CD         0.1360   64.2060   60.3490 C.3    10  ARG10       0.2205
     27  NE         0.1720   63.9840   58.9010 N.pl3  10  ARG10      -0.0865
     28  CZ         0.4520   62.8170   58.3160 C.cat  10  ARG10       0.5346
     29  NH1        0.7240   61.7460   59.0520 N.pl3  10  ARG10       0.1354
     30  NH2        0.4620   62.7210   56.9910 N.pl3  10  ARG10       0.1354
     31  N         -2.8750   62.3930   63.7510 N.am   11  PRO11      -0.2727
     32  CA        -2.4380   62.3250   65.1460 C.3    11  PRO11       0.1402
     33  C         -1.2110   63.1890   65.3890 C.2    11  PRO11       0.2269
     34  O         -0.1900   63.0300   64.7240 O.2    11  PRO11      -0.2865
     35  CB        -2.1530   60.8440   65.3370 C.3    11  PRO11       0.0296
     36  CG        -3.2160   60.2150   64.5170 C.3    11  PRO11       0.0237
     37  CD        -3.1880   61.0500   63.2360 C.3    11  PRO11       0.0939
     38  N         -2.7570   57.8340   67.8490 N.3    17  ILE17      -0.1231
     39  CA        -2.6450   56.7730   66.8520 C.3    17  ILE17       0.1692
     40  C         -3.4170   55.5390   67.3070 C.2    17  ILE17       0.2592
     41  O         -3.2220   55.0550   68.4220 O.2    17  ILE17      -0.2718
     42  CB        -1.1540   56.3640   66.5780 C.3    17  ILE17       0.0266
     43  CG1       -0.4080   57.4710   65.8190 C.3    17  ILE17       0.0019
     44  CG2       -1.1070   55.1000   65.7230 C.3    17  ILE17       0.0020
     45  CD1       -0.0290   58.6620   66.6520 C.3    17  ILE17       0.0001
     46  N         -4.3020   55.0470   66.4430 N.am   18  VAL18      -0.1966
     47  CA        -5.0860   53.8550   66.7470 C.3    18  VAL18       0.1727
     48  C         -4.3040   52.6690   66.2070 C.2    18  VAL18       0.2616
     49  O         -4.8540   51.6180   65.9070 O.2    18  VAL18      -0.2715
     50  CB        -6.4840   53.8930   66.0720 C.3    18  VAL18       0.0290
     51  CG1       -7.2050   55.1850   66.4340 C.3    18  VAL18       0.0023
     52  CG2       -6.3490   53.7520   64.5650 C.3    18  VAL18       0.0023
     53  N         -2.9990   52.8610   66.1060 N.am   19  GLY19      -0.1955
     54  CA        -2.1220   51.8340   65.5820 C.3    19  GLY19       0.1869
     55  C         -2.1570   50.4300   66.1650 C.2    19  GLY19       0.2309
     56  O         -3.2070   49.8750   66.4850 O.2    19  GLY19      -0.2863
     57  N          0.4150   50.3670   53.3810 N.3    45  PRO45      -0.2102
     58  CA         0.0010   51.7710   53.2470 C.3    45  PRO45       0.1504
     59  C         -1.0400   52.2780   54.2470 C.2    45  PRO45       0.2576
     60  O         -2.0050   51.5940   54.5720 O.2    45  PRO45      -0.2718
     61  CB        -0.5270   51.8380   51.8200 C.3    45  PRO45       0.0282
     62  CG         0.2850   50.7910   51.1200 C.3    45  PRO45       0.0208
     63  CD         0.2640   49.6590   52.0970 C.3    45  PRO45       0.0893
     64  N         -0.8180   53.4960   54.7240 N.am   46  GLY46      -0.1943
     65  CA        -1.7350   54.1520   55.6370 C.3    46  GLY46       0.2014
     66  C         -2.1340   53.5470   56.9700 C.2    46  GLY46       0.2639
     67  O         -3.2890   53.6630   57.3640 O.2    46  GLY46      -0.2714
     68  N         -1.2160   52.9180   57.6860 N.am   47  ILE47      -0.1963
     69  CA        -1.5950   52.3730   58.9780 C.3    47  ILE47       0.1727
     70  C         -1.0340   53.2080   60.1290 C.2    47  ILE47       0.2617
     71  O         -1.2830   52.9130   61.2980 O.2    47  ILE47      -0.2715
     72  CB        -1.2130   50.8670   59.1250 C.3    47  ILE47       0.0290
     73  CG1        0.0270   50.5170   58.3020 C.3    47  ILE47       0.0022
     74  CG2       -2.3730   50.0160   58.6660 C.3    47  ILE47       0.0023
     75  CD1        1.2380   51.3120   58.6700 C.3    47  ILE47       0.0001
     76  N         -0.3000   54.2680   59.7930 N.am   48  GLY48      -0.1940
     77  CA         0.2380   55.1490   60.8200 C.3    48  GLY48       0.2014
     78  C          1.7320   55.1020   61.1090 C.2    48  GLY48       0.2639
     79  O          2.1600   55.2900   62.2550 O.2    48  GLY48      -0.2714
     80  N          2.5340   54.8700   60.0750 N.am   49  LYS49      -0.1963
     81  CA         3.9710   54.8010   60.2530 C.3    49  LYS49       0.1728
     82  C          4.5740   56.1880   60.2740 C.2    49  LYS49       0.2617
     83  O          5.1680   56.5970   61.2710 O.2    49  LYS49      -0.2715
     84  CB         4.5980   53.9690   59.1420 C.3    49  LYS49       0.0311
     85  CG         4.1440   52.5140   59.1520 C.3    49  LYS49       0.0038
     86  CD         4.8380   51.6920   58.0560 C.3    49  LYS49       0.0206
     87  CE         4.6120   52.2630   56.6560 C.3    49  LYS49       0.1093
     88  NZ         3.1980   52.1510   56.2380 N.3    49  LYS49      -0.1314
     89  N          4.4200   56.9220   59.1810 N.am   50  THR50      -0.1937
     90  CA         4.9780   58.2580   59.1330 C.3    50  THR50       0.2028
     91  C          4.4630   59.1080   60.2890 C.2    50  THR50       0.2642
     92  O          5.1980   59.9240   60.8440 O.2    50  THR50      -0.2714
     93  CB         4.6540   58.9310   57.8230 C.3    50  THR50       0.1808
     94  OG1        5.2570   58.1840   56.7670 O.3    50  THR50      -0.2208
     95  CG2        5.2080   60.3410   57.7980 C.3    50  THR50       0.0379
     96  N          3.1990   58.9230   60.6550 N.am   51  THR51      -0.1950
     97  CA         2.6320   59.6680   61.7680 C.3    51  THR51       0.1897
     98  C          3.4450   59.2650   62.9800 C.2    51  THR51       0.2313
     99  O          4.0580   60.0860   63.6490 O.2    51  THR51      -0.2863
    100  CB         1.1660   59.2680   62.0240 C.3    51  THR51       0.1794
    101  OG1        0.3330   59.8020   60.9910 O.3    51  THR51      -0.2208
    102  CG2        0.6940   59.7860   63.3630 C.3    51  THR51       0.0378
    103  N         11.9200   58.9790   55.2510 N.3   108  ASP108     -0.1225
    104  CA        10.6320   58.3740   54.9150 C.3   108  ASP108      0.1805
    105  C         10.7150   57.8670   53.4910 C.2   108  ASP108      0.2597
    106  O         11.5580   58.3270   52.7260 O.2   108  ASP108     -0.2718
    107  CB         9.5090   59.3990   55.0250 C.3   108  ASP108      0.1424
    108  CG         8.2110   58.7930   55.5210 C.2   108  ASP108      0.3668
    109  OD1        7.9880   57.5770   55.3250 O.co2 108  ASP108     -0.2456
    110  OD2        7.4010   59.5480   56.1000 O.co2 108  ASP108     -0.2456
    111  N          9.8390   56.9310   53.1340 N.am  109  GLU109     -0.1979
    112  CA         9.8640   56.3530   51.7920 C.3   109  GLU109      0.1602
    113  C         11.3010   55.9030   51.5040 C.2   109  GLU109      0.2287
    114  O         11.8540   56.1500   50.4230 O.2   109  GLU109     -0.2864
    115  CB         9.4090   57.3820   50.7480 C.3   109  GLU109      0.0415
    116  CG         7.9220   57.6950   50.7900 C.3   109  GLU109      0.1163
    117  CD         7.5490   58.7120   51.8590 C.2   109  GLU109      0.3649
    118  OE1        8.1230   59.8270   51.8180 O.co2 109  GLU109     -0.2457
    119  OE2        6.6820   58.4050   52.7210 O.co2 109  GLU109     -0.2457
    120  N          9.0500   52.6950   55.5910 N.3   138  CYS138     -0.1221
    121  CA         8.8450   52.1380   54.2580 C.3   138  CYS138      0.1808
    122  C          7.7320   51.0960   54.1880 C.2   138  CYS138      0.2601
    123  O          7.1340   50.7440   55.2000 O.2   138  CYS138     -0.2717
    124  CB        10.1430   51.4990   53.7830 C.3   138  CYS138      0.0970
    125  SG        10.6390   50.0550   54.7840 S.3   138  CYS138     -0.0800
    126  N          7.4430   50.6140   52.9820 N.am  139  ASN139     -0.1974
    127  CA         6.4270   49.5790   52.8120 C.3   139  ASN139      0.1688
    128  C          7.1850   48.2810   52.6340 C.2   139  ASN139      0.2292
    129  O          6.7200   47.2130   53.0290 O.2   139  ASN139     -0.2864
    130  CB         5.5530   49.8200   51.5770 C.3   139  ASN139      0.1181
    131  CG         4.7630   51.1130   51.6600 C.2   139  ASN139      0.2629
    132  OD1        5.1710   52.1310   51.1050 O.2   139  ASN139     -0.2716
    133  ND2        3.6300   51.0820   52.3540 N.am  139  ASN139     -0.0877
    134  N         -4.9450   47.9630   60.0950 N.3   160  LEU160     -0.1245
    135  CA        -5.8490   48.2820   61.1930 C.3   160  LEU160      0.1561
    136  C         -7.1240   47.4510   61.1900 C.2   160  LEU160      0.2260
    137  O         -7.8200   47.3660   60.1790 O.2   160  LEU160     -0.2867
    138  CB        -6.2450   49.7590   61.1690 C.3   160  LEU160      0.0270
    139  CG        -5.2940   50.8440   61.6620 C.3   160  LEU160      0.0019
    140  CD1       -4.1540   50.2360   62.4500 C.3   160  LEU160      0.0001
    141  CD2       -4.7740   51.6230   60.4730 C.3   160  LEU160      0.0001
    142  N        -11.5650   55.7670   65.0140 N.3   168  ARG168     -0.1245
    143  CA       -11.0920   57.0390   64.4970 C.3   168  ARG168      0.1563
    144  C        -12.0720   57.5870   63.4650 C.2   168  ARG168      0.2260
    145  O        -12.0940   58.7870   63.1810 O.2   168  ARG168     -0.2867
    146  CB        -9.6960   56.8920   63.8810 C.3   168  ARG168      0.0307
    147  CG        -9.0200   58.2310   63.6220 C.3   168  ARG168      0.0489
    148  CD        -9.2760   59.1730   64.7940 C.3   168  ARG168      0.2205
    149  NE        -8.6100   60.4600   64.6530 N.pl3 168  ARG168     -0.0865
    150  CZ        -7.3110   60.6520   64.8460 C.cat 168  ARG168      0.5346
    151  NH1       -6.5310   59.6350   65.1920 N.pl3 168  ARG168      0.1354
    152  NH2       -6.7920   61.8640   64.7020 N.pl3 168  ARG168      0.1354
    153  N         -6.3170   53.4590   57.1100 N.3   196  MET196     -0.1230
    154  CA        -7.0140   54.6010   57.6990 C.3   196  MET196      0.1702
    155  C         -7.1090   55.7830   56.7430 C.2   196  MET196      0.2592
    156  O         -8.1590   56.3930   56.6230 O.2   196  MET196     -0.2718
    157  CB        -6.3140   55.0530   58.9720 C.3   196  MET196      0.0401
    158  CG        -7.1610   55.9490   59.8470 C.3   196  MET196      0.0596
    159  SD        -8.3270   54.9900   60.8200 S.3   196  MET196     -0.1393
    160  CE        -9.8570   55.5090   60.1380 C.3   196  MET196      0.0692
    161  N         -6.0060   56.1090   56.0740 N.am  197  ARG197     -0.1980
    162  CA        -5.9730   57.2210   55.1260 C.3   197  ARG197      0.1597
    163  C         -7.0910   57.0470   54.1020 C.2   197  ARG197      0.2287
    164  O         -7.9420   57.9330   53.9270 O.2   197  ARG197     -0.2864
    165  CB        -4.6190   57.2730   54.3950 C.3   197  ARG197      0.0334
    166  CG        -4.4770   58.4310   53.3920 C.3   197  ARG197      0.0492
    167  CD        -3.2790   58.2650   52.4590 C.3   197  ARG197      0.2205
    168  NE        -2.0070   58.5020   53.1330 N.pl3 197  ARG197     -0.0865
    169  CZ        -0.9580   57.6810   53.0810 C.cat 197  ARG197      0.5346
    170  NH1       -1.0180   56.5520   52.3840 N.pl3 197  ARG197      0.1354
    171  NH2        0.1570   57.9940   53.7250 N.pl3 197  ARG197      0.1354
    172  N        -10.6810   57.5960   55.6350 N.3   200  ILE200     -0.1245
    173  CA       -10.9560   59.0140   55.8100 C.3   200  ILE200      0.1561
    174  C        -11.1610   59.6980   54.4560 C.2   200  ILE200      0.2260
    175  O        -12.2120   60.2880   54.2260 O.2   200  ILE200     -0.2867
    176  CB        -9.8160   59.7060   56.6030 C.3   200  ILE200      0.0252
    177  CG1       -9.7180   59.0880   58.0040 C.3   200  ILE200      0.0019
    178  CG2      -10.0610   61.2060   56.6730 C.3   200  ILE200      0.0019
    179  CD1       -8.6630   59.7050   58.8850 C.3   200  ILE200      0.0001
@<TRIPOS>BOND
     1   114   113    2
     2   115   116    1
     3   115   112    1
     4   116   117    1
     5   132   131    2
     6    62    61    1
     7    62    63    1
     8   113   112    1
     9   130   131    1
    10   130   127    1
    11   131   133   am
    12   112   111    1
    13   118   117   ar
    14    61    58    1
    15   117   119   ar
    16    63    57    1
    17   170   169    1
    18   167   168    1
    19   167   166    1
    20   128   127    1
    21   128   129    2
    22   106   105    2
    23   127   126    1
    24   126   122   am
    25   169   168    2
    26   169   171    1
    27   111   105   am
    28    58    57    1
    29    58    59    1
    30   166   165    1
    31   105   104    1
    32   124   121    1
    33   124   125    1
    34   164   163    2
    35   163   162    1
    36   122   121    1
    37   122   123    2
    38   175   174    2
    39    59    60    2
    40    59    64   am
    41   121   120    1
    42     7     5    1
    43   165   162    1
    44   174   173    1
    45    64    65    1
    46     6     5    1
    47   104   107    1
    48   104   103    1
    49   107   108    1
    50   162   161    1
    51   109   108   ar
    52     5     2    1
    53   108   110   ar
    54   172   173    1
    55    65    66    1
    56   173   176    1
    57   161   155   am
    58    88    87    1
    59     1     2    1
    60   176   178    1
    61   176   177    1
    62   156   155    2
    63     2     3    1
    64    87    86    1
    65   155   154    1
    66    94    93    1
    67    66    67    2
    68    66    68   am
    69    30    28    1
    70   153   154    1
    71     3     4    2
    72    68    69    1
    73   154   157    1
    74    95    93    1
    75    93    90    1
    76   177   179    1
    77    86    85    1
    78    73    75    1
    79    73    72    1
    80    28    27    2
    81    28    29    1
    82    74    72    1
    83    27    26    1
    84   157   158    1
    85    69    72    1
    86    69    70    1
    87    90    89    1
    88    90    91    1
    89    84    85    1
    90    84    81    1
    91    89    82   am
    92    76    70   am
    93    76    77    1
    94   158   159    1
    95    80    81    1
    96    80    78   am
    97   134   135    1
    98    70    71    2
    99   160   159    1
   100   137   136    2
   101    81    82    1
   102    82    83    2
   103    91    96   am
   104    91    92    2
   105    26    25    1
   106   141   139    1
   107    96    97    1
   108    14    16   ar
   109    14    13   ar
   110    16    18   ar
   111     8     9    1
   112    24    25    1
   113    24    21    1
   114    77    78    1
   115   101   100    1
   116    78    79    2
   117   138   135    1
   118   138   139    1
   119   136   135    1
   120    20    21    1
   121    20    10   am
   122   139   140    1
   123    21    22    1
   124    97   100    1
   125    97    98    1
   126    13    12    1
   127    13    15   ar
   128    18    19    1
   129    18    17   ar
   130    12     9    1
   131     9    10    1
   132   100   102    1
   133    10    11    2
   134    98    99    2
   135    15    17   ar
   136    22    23    2
   137    22    31   am
   138   145   144    2
   139    37    31    1
   140    37    36    1
   141   144   143    1
   142   147   146    1
   143   147   148    1
   144    31    32    1
   145   146   143    1
   146   143   142    1
   147    36    35    1
   148    52    50    1
   149   149   148    1
   150   149   150    2
   151   152   150    1
   152    34    33    2
   153   150   151    1
   154    32    35    1
   155    32    33    1
   156    54    53    1
   157    54    55    1
   158    44    42    1
   159    43    42    1
   160    43    45    1
   161    49    48    2
   162    50    51    1
   163    50    47    1
   164    53    48   am
   165    55    56    2
   166    48    47    1
   167    46    47    1
   168    46    40   am
   169    42    39    1
   170    39    40    1
   171    39    38    1
   172    40    41    2
