@<TRIPOS>MOLECULE
tmp/1sxjE00.pdb
 170 167 0 0 0
SMALL
GASTEIGER

@<TRIPOS>ATOM
      1  N         39.4520   14.0670   28.4760 N.3     2  VAL2       -0.1231
      2  CA        38.5780   14.0590   27.2960 C.3     2  VAL2        0.1692
      3  C         38.9210   15.1460   26.2880 C.2     2  VAL2        0.2592
      4  O         38.7590   14.9600   25.0810 O.2     2  VAL2       -0.2718
      5  CB        37.0890   14.2260   27.6960 C.3     2  VAL2        0.0266
      6  CG1       36.2580   14.6370   26.4900 C.3     2  VAL2        0.0020
      7  CG2       36.5580   12.9220   28.2560 C.3     2  VAL2        0.0020
      8  N         39.3850   16.2840   26.7910 N.am    3  ASP3       -0.1974
      9  CA        39.7490   17.4080   25.9390 C.3     3  ASP3        0.1709
     10  C         40.8650   16.9880   24.9810 C.2     3  ASP3        0.2293
     11  O         40.9510   17.4740   23.8520 O.2     3  ASP3       -0.2864
     12  CB        40.2280   18.5790   26.8020 C.3     3  ASP3        0.1436
     13  CG        39.4020   18.7540   28.0630 C.2     3  ASP3        0.3671
     14  OD1       38.1690   18.9270   27.9530 O.co2   3  ASP3       -0.2456
     15  OD2       39.9900   18.7200   29.1660 O.co2   3  ASP3       -0.2456
     16  N         41.7860   13.8580   23.2940 N.3     5  TYR5       -0.1227
     17  CA        41.4430   13.1950   22.0420 C.3     5  TYR5        0.1736
     18  C         40.2600   13.8010   21.2940 C.2     5  TYR5        0.2595
     19  O         39.4730   13.0750   20.6830 O.2     5  TYR5       -0.2718
     20  CB        41.1740   11.7070   22.2970 C.3     5  TYR5        0.0548
     21  CG        42.2680   11.0130   23.0830 C.ar    5  TYR5       -0.0200
     22  CD1       42.4400   11.2590   24.4460 C.ar    5  TYR5       -0.0009
     23  CD2       43.1400   10.1200   22.4620 C.ar    5  TYR5       -0.0009
     24  CE1       43.4580   10.6360   25.1710 C.ar    5  TYR5        0.0417
     25  CE2       44.1620    9.4920   23.1770 C.ar    5  TYR5        0.0417
     26  CZ        44.3140    9.7530   24.5300 C.ar    5  TYR5        0.1957
     27  OH        45.3220    9.1350   25.2380 O.3     5  TYR5       -0.2866
     28  N         40.1300   15.1240   21.3280 N.am    6  ARG6       -0.1966
     29  CA        39.0260   15.7660   20.6280 C.3     6  ARG6        0.1714
     30  C         39.4540   16.1770   19.2200 C.2     6  ARG6        0.2458
     31  O         40.4730   16.8480   19.0420 O.2     6  ARG6       -0.2730
     32  CB        38.5310   16.9910   21.4050 C.3     6  ARG6        0.0347
     33  CG        39.3750   18.2400   21.2440 C.3     6  ARG6        0.0492
     34  CD        38.7220   19.4190   21.9380 C.3     6  ARG6        0.2205
     35  NE        39.3950   20.6750   21.6240 N.pl3   6  ARG6       -0.0865
     36  CZ        39.0960   21.8400   22.1870 C.cat   6  ARG6        0.5346
     37  NH1       38.1330   21.9080   23.0960 N.pl3   6  ARG6        0.1354
     38  NH2       39.7570   22.9360   21.8420 N.pl3   6  ARG6        0.1354
     39  N         38.6840   15.7650   18.1990 N.am    7  PRO7       -0.2727
     40  CA        38.9670   16.0820   16.7950 C.3     7  PRO7        0.1402
     41  C         39.2010   17.5690   16.5580 C.2     7  PRO7        0.2269
     42  O         38.2510   18.3450   16.4840 O.2     7  PRO7       -0.2865
     43  CB        37.7180   15.5780   16.0760 C.3     7  PRO7        0.0296
     44  CG        37.3480   14.3940   16.8760 C.3     7  PRO7        0.0237
     45  CD        37.4930   14.9040   18.2970 C.3     7  PRO7        0.0939
     46  N         37.0830   14.1090   12.2340 N.3    13  LEU13      -0.1231
     47  CA        35.6970   13.7720   12.5430 C.3    13  LEU13       0.1693
     48  C         35.4520   12.2810   12.3250 C.2    13  LEU13       0.2593
     49  O         35.5590   11.7780   11.2060 O.2    13  LEU13      -0.2718
     50  CB        34.7430   14.5870   11.6620 C.3    13  LEU13       0.0284
     51  CG        34.8250   16.1130   11.7600 C.3    13  LEU13       0.0019
     52  CD1       33.8900   16.7450   10.7390 C.3    13  LEU13       0.0001
     53  CD2       34.4630   16.5570   13.1670 C.3    13  LEU13       0.0001
     54  N         35.1190   11.5830   13.4050 N.am   14  SER14      -0.1938
     55  CA        34.8670   10.1500   13.3480 C.3    14  SER14       0.2055
     56  C         33.4100    9.8180   13.6540 C.2    14  SER14       0.2643
     57  O         33.0650    8.6580   13.8800 O.2    14  SER14      -0.2714
     58  CB        35.7720    9.4370   14.3510 C.3    14  SER14       0.2130
     59  OG        35.5370    9.9200   15.6620 O.3    14  SER14      -0.2179
     60  N         32.5560   10.8360   13.6560 N.am   15  HIS15      -0.1973
     61  CA        31.1420   10.6410   13.9590 C.3    15  HIS15       0.1656
     62  C         30.2000   11.2300   12.9070 C.2    15  HIS15       0.2291
     63  O         30.4460   12.3090   12.3660 O.2    15  HIS15      -0.2864
     64  CB        30.8330   11.2370   15.3400 C.3    15  HIS15       0.0771
     65  CG        29.3750   11.2920   15.6670 C.ar   15  HIS15       0.0820
     66  ND1       28.5510   10.1890   15.5910 N.ar   15  HIS15      -0.2267
     67  CD2       28.5900   12.3200   16.0660 C.ar   15  HIS15       0.1154
     68  CE1       27.3230   10.5370   15.9270 C.ar   15  HIS15       0.1986
     69  NE2       27.3190   11.8250   16.2200 N.ar   15  HIS15      -0.2212
     70  N         21.0440   16.4130   21.1120 N.3    41  PRO41      -0.2102
     71  CA        21.3840   16.0800   22.4980 C.3    41  PRO41       0.1504
     72  C         22.7440   16.6430   22.8770 C.2    41  PRO41       0.2576
     73  O         23.4140   17.2690   22.0580 O.2    41  PRO41      -0.2718
     74  CB        21.3840   14.5570   22.4900 C.3    41  PRO41       0.0282
     75  CG        20.3580   14.2310   21.4590 C.3    41  PRO41       0.0208
     76  CD        20.6840   15.1990   20.3590 C.3    41  PRO41       0.0893
     77  N         23.1520   16.4200   24.1200 N.am   42  ASN42      -0.1961
     78  CA        24.4500   16.8960   24.5760 C.3    42  ASN42       0.1819
     79  C         25.5140   15.8380   24.3300 C.2    42  ASN42       0.2622
     80  O         25.2060   14.6490   24.2550 O.2    42  ASN42      -0.2715
     81  CB        24.4020   17.2450   26.0620 C.3    42  ASN42       0.1195
     82  CG        23.7720   18.5890   26.3150 C.2    42  ASN42       0.2630
     83  OD1       24.2170   19.6030   25.7740 O.2    42  ASN42      -0.2716
     84  ND2       22.7300   18.6130   27.1380 N.am   42  ASN42      -0.0877
     85  N         26.7630   16.2760   24.1980 N.am   43  GLY43      -0.1940
     86  CA        27.8540   15.3500   23.9600 C.3    43  GLY43       0.2014
     87  C         27.7450   14.5690   22.6610 C.2    43  GLY43       0.2640
     88  O         28.2300   13.4400   22.5750 O.2    43  GLY43      -0.2714
     89  N         27.1060   15.1560   21.6530 N.am   44  THR44      -0.1936
     90  CA        26.9560   14.4970   20.3600 C.3    44  THR44       0.2028
     91  C         28.1320   14.8640   19.4610 C.2    44  THR44       0.2643
     92  O         28.3820   14.2140   18.4440 O.2    44  THR44      -0.2714
     93  CB        25.6420   14.9090   19.6650 C.3    44  THR44       0.1808
     94  OG1       24.5280   14.4600   20.4450 O.3    44  THR44      -0.2208
     95  CG2       25.5520   14.2930   18.2780 C.3    44  THR44       0.0379
     96  N         28.8540   15.9120   19.8430 N.am   45  GLY45      -0.1939
     97  CA        30.0000   16.3330   19.0620 C.3    45  GLY45       0.2014
     98  C         29.7450   17.4940   18.1240 C.2    45  GLY45       0.2639
     99  O         30.4200   17.6270   17.1020 O.2    45  GLY45      -0.2714
    100  N         28.7730   18.3340   18.4630 N.am   46  LYS46      -0.1963
    101  CA        28.4550   19.4910   17.6360 C.3    46  LYS46       0.1728
    102  C         29.3620   20.6790   17.9560 C.2    46  LYS46       0.2616
    103  O         29.9870   21.2380   17.0580 O.2    46  LYS46      -0.2715
    104  CB        26.9750   19.8750   17.7890 C.3    46  LYS46       0.0311
    105  CG        26.4160   19.7340   19.1950 C.3    46  LYS46       0.0038
    106  CD        24.9410   20.1100   19.2490 C.3    46  LYS46       0.0206
    107  CE        24.3330   19.7850   20.6070 C.3    46  LYS46       0.1093
    108  NZ        25.0390   20.4640   21.7310 N.3    46  LYS46      -0.1314
    109  N         29.4470   21.0590   19.2290 N.am   47  LYS47      -0.1963
    110  CA        30.2980   22.1810   19.6230 C.3    47  LYS47       0.1728
    111  C         31.7080   21.9890   19.0740 C.2    47  LYS47       0.2617
    112  O         32.3840   22.9570   18.7270 O.2    47  LYS47      -0.2715
    113  CB        30.3570   22.3110   21.1530 C.3    47  LYS47       0.0311
    114  CG        29.0540   22.7620   21.8090 C.3    47  LYS47       0.0038
    115  CD        29.0460   22.4560   23.3050 C.3    47  LYS47       0.0206
    116  CE        27.6510   22.6310   23.8980 C.3    47  LYS47       0.1093
    117  NZ        27.5720   22.1570   25.3100 N.3    47  LYS47      -0.1314
    118  N         32.1490   20.7360   18.9990 N.am   48  THR48      -0.1937
    119  CA        33.4780   20.4260   18.4830 C.3    48  THR48       0.2028
    120  C         33.4280   20.3950   16.9630 C.2    48  THR48       0.2642
    121  O         34.3930   20.7670   16.2960 O.2    48  THR48      -0.2714
    122  CB        33.9880   19.0620   18.9960 C.3    48  THR48       0.1808
    123  OG1       34.0770   19.0890   20.4250 O.3    48  THR48      -0.2208
    124  CG2       35.3640   18.7600   18.4270 C.3    48  THR48       0.0379
    125  N         32.2990   19.9500   16.4190 N.am   49  ARG49      -0.1977
    126  CA        32.1290   19.8940   14.9750 C.3    49  ARG49       0.1597
    127  C         32.0440   21.3280   14.4510 C.2    49  ARG49       0.2287
    128  O         31.9420   21.5600   13.2460 O.2    49  ARG49      -0.2864
    129  CB        30.8650   19.1160   14.6220 C.3    49  ARG49       0.0334
    130  CG        31.1570   17.7460   14.0390 C.3    49  ARG49       0.0492
    131  CD        29.9510   17.2330   13.2340 C.3    49  ARG49       0.2205
    132  NE        28.7740   17.2890   14.0920 N.pl3  49  ARG49      -0.0865
    133  CZ        28.4460   16.4050   15.0230 C.cat  49  ARG49       0.5346
    134  NH1       29.1850   15.3200   15.2550 N.pl3  49  ARG49       0.1354
    135  NH2       27.3300   16.6300   15.7160 N.pl3  49  ARG49       0.1354
    136  N         35.1170    4.7620   19.1950 N.3   164  ILE164     -0.1245
    137  CA        35.9240    5.9030   19.6110 C.3   164  ILE164      0.1561
    138  C         36.4930    5.6820   21.0110 C.2   164  ILE164      0.2260
    139  O         37.3520    6.4350   21.4700 O.2   164  ILE164     -0.2867
    140  CB        35.0910    7.2110   19.6060 C.3   164  ILE164      0.0252
    141  CG1       34.4830    7.4330   18.2180 C.3   164  ILE164      0.0019
    142  CG2       35.9700    8.3930   19.9900 C.3   164  ILE164      0.0019
    143  CD1       33.7210    8.7410   18.0680 C.3   164  ILE164      0.0001
    144  N         28.7930   11.3720   24.3240 N.3   193  LEU193     -0.1231
    145  CA        30.2290   11.1590   24.1700 C.3   193  LEU193      0.1693
    146  C         30.9890   11.9070   25.2550 C.2   193  LEU193      0.2591
    147  O         32.0590   11.4780   25.6810 O.2   193  LEU193     -0.2718
    148  CB        30.7060   11.6220   22.7900 C.3   193  LEU193      0.0284
    149  CG        30.2700   10.7760   21.5910 C.3   193  LEU193      0.0019
    150  CD1       30.8230   11.3780   20.3070 C.3   193  LEU193      0.0001
    151  CD2       30.7670    9.3490   21.7640 C.3   193  LEU193      0.0001
    152  N         30.4340   13.0310   25.6990 N.am  194  ARG194     -0.1980
    153  CA        31.0750   13.8090   26.7490 C.3   194  ARG194      0.1597
    154  C         31.0830   12.9660   28.0200 C.2   194  ARG194      0.2287
    155  O         31.9260   13.1470   28.8950 O.2   194  ARG194     -0.2864
    156  CB        30.3230   15.1240   26.9920 C.3   194  ARG194      0.0334
    157  CG        30.9260   15.9710   28.1100 C.3   194  ARG194      0.0492
    158  CD        30.1500   17.2620   28.3780 C.3   194  ARG194      0.2205
    159  NE        30.3460   18.2710   27.3390 N.pl3 194  ARG194     -0.0865
    160  CZ        29.6600   18.3300   26.2020 C.cat 194  ARG194      0.5346
    161  NH1       28.7130   17.4360   25.9440 N.pl3 194  ARG194      0.1354
    162  NH2       29.9280   19.2850   25.3210 N.pl3 194  ARG194      0.1354
    163  N         33.0260    9.0430   27.2990 N.3   197  LEU197     -0.1245
    164  CA        34.4720    9.2390   27.3010 C.3   197  LEU197      0.1561
    165  C         34.9350    9.6450   28.6900 C.2   197  LEU197      0.2260
    166  O         35.7920    8.9970   29.2770 O.2   197  LEU197     -0.2867
    167  CB        34.8650   10.3210   26.2970 C.3   197  LEU197      0.0270
    168  CG        34.5490    9.9970   24.8380 C.3   197  LEU197      0.0019
    169  CD1       34.8790   11.1950   23.9720 C.3   197  LEU197      0.0001
    170  CD2       35.3410    8.7720   24.3990 C.3   197  LEU197      0.0001
@<TRIPOS>BOND
     1    52    51    1
     2    49    48    2
     3    50    51    1
     4    50    47    1
     5    51    53    1
     6    46    47    1
     7    48    47    1
     8    48    54   am
     9    63    62    2
    10    62    61    1
    11   131   130    1
    12   131   132    1
    13   128   127    2
    14    55    54    1
    15    55    56    1
    16    55    58    1
    17    56    60   am
    18    56    57    2
    19    60    61    1
    20    61    64    1
    21   130   129    1
    22   132   133    2
    23    58    59    1
    24   127   126    1
    25   129   126    1
    26   126   125    1
    27   133   134    1
    28   133   135    1
    29    64    65    1
    30    66    65   ar
    31    66    68   ar
    32    65    67   ar
    33    68    69   ar
    34    67    69   ar
    35    43    40    1
    36    43    44    1
    37   121   120    2
    38   125   120   am
    39    42    41    2
    40    41    40    1
    41    40    39    1
    42    44    45    1
    43   120   119    1
    44   103   102    2
    45    99    98    2
    46   101   104    1
    47   101   102    1
    48   101   100    1
    49   104   105    1
    50   102   109   am
    51   143   141    1
    52    98   100   am
    53    98    97    1
    54    39    45    1
    55    39    30   am
    56   141   140    1
    57    95    93    1
    58   124   122    1
    59    92    91    2
    60   119   122    1
    61   119   118    1
    62   112   111    2
    63   122   123    1
    64   118   111   am
    65    31    30    2
    66    97    96    1
    67   111   110    1
    68   105   106    1
    69   136   137    1
    70    30    29    1
    71   109   110    1
    72   106   107    1
    73    91    96   am
    74    91    90    1
    75   140   137    1
    76   140   142    1
    77   137   138    1
    78   110   113    1
    79    93    90    1
    80    93    94    1
    81   150   149    1
    82    76    70    1
    83    76    75    1
    84    90    89    1
    85   107   108    1
    86    29    28    1
    87    29    32    1
    88    19    18    2
    89   138   139    2
    90    70    71    1
    91   113   114    1
    92    33    32    1
    93    33    34    1
    94    18    28   am
    95    18    17    1
    96    75    74    1
    97   149   151    1
    98   149   148    1
    99    35    34    1
   100    35    36    2
   101    89    87   am
   102   114   115    1
   103    38    36    1
   104    17    20    1
   105    17    16    1
   106    73    72    2
   107    36    37    1
   108    20    21    1
   109    23    21   ar
   110    23    25   ar
   111    74    71    1
   112    71    72    1
   113    88    87    2
   114    87    86    1
   115   148   145    1
   116    72    77   am
   117    21    22   ar
   118    25    26   ar
   119   115   116    1
   120    11    10    2
   121   116   117    1
   122    86    85    1
   123   169   168    1
   124    77    78    1
   125   145   144    1
   126   145   146    1
   127    85    79   am
   128    80    79    2
   129    79    78    1
   130   170   168    1
   131    22    24   ar
   132    26    24   ar
   133    26    27    1
   134    78    81    1
   135   168   167    1
   136    10     9    1
   137     4     3    2
   138   146   147    2
   139   146   152   am
   140   162   160    1
   141   152   153    1
   142    83    82    2
   143     9     8    1
   144     9    12    1
   145   161   160    1
   146    81    82    1
   147   160   159    2
   148     3     8   am
   149     3     2    1
   150   167   164    1
   151    82    84   am
   152     6     5    1
   153   153   156    1
   154   153   154    1
   155    12    13    1
   156   156   157    1
   157     2     5    1
   158     2     1    1
   159   163   164    1
   160   164   165    1
   161   159   158    1
   162     5     7    1
   163    14    13   ar
   164   154   155    2
   165    13    15   ar
   166   157   158    1
   167   165   166    2
