@<TRIPOS>MOLECULE
tmp/1sxpD00.pdb
 94 89 0 0 0
SMALL
GASTEIGER

@<TRIPOS>ATOM
      1  N         34.7320   31.0530   64.3050 N.3   180  LYS180     -0.1231
      2  CA        35.4370   31.2480   63.0490 C.3   180  LYS180      0.1693
      3  C         35.5720   29.9790   62.1980 C.2   180  LYS180      0.2593
      4  O         35.6880   28.8690   62.7170 O.2   180  LYS180     -0.2718
      5  CB        36.8110   31.8760   63.3380 C.3   180  LYS180      0.0285
      6  CG        36.7180   33.2610   63.9960 C.3   180  LYS180      0.0035
      7  CD        35.7170   34.1340   63.2380 C.3   180  LYS180      0.0206
      8  CE        35.3610   35.4110   63.9720 C.3   180  LYS180      0.1093
      9  NZ        36.4660   36.3890   63.9430 N.3   180  LYS180     -0.1314
     10  N         35.5340   30.1540   60.8840 N.am  181  THR181     -0.1939
     11  CA        35.6600   29.0340   59.9670 C.3   181  THR181      0.2028
     12  C         36.4500   29.4250   58.7320 C.2   181  THR181      0.2642
     13  O         36.6470   28.6100   57.8360 O.2   181  THR181     -0.2714
     14  CB        34.3000   28.5310   59.5080 C.3   181  THR181      0.1808
     15  OG1       33.6170   29.5760   58.8020 O.3   181  THR181     -0.2208
     16  CG2       33.4720   28.0990   60.7040 C.3   181  THR181      0.0379
     17  N         36.8910   30.6780   58.6840 N.am  182  LEU182     -0.1963
     18  CA        37.6760   31.1910   57.5620 C.3   182  LEU182      0.1728
     19  C         38.8070   32.0410   58.1130 C.2   182  LEU182      0.2616
     20  O         38.6690   32.6580   59.1710 O.2   182  LEU182     -0.2715
     21  CB        36.8110   32.0670   56.6670 C.3   182  LEU182      0.0311
     22  CG        35.5760   31.4120   56.0630 C.3   182  LEU182      0.0022
     23  CD1       34.6540   32.4750   55.4610 C.3   182  LEU182      0.0001
     24  CD2       36.0170   30.4170   55.0200 C.3   182  LEU182      0.0001
     25  N         39.9300   32.0690   57.4110 N.am  183  ASP183     -0.1971
     26  CA        41.0380   32.8990   57.8580 C.3   183  ASP183      0.1709
     27  C         40.7530   34.3120   57.3440 C.2   183  ASP183      0.2293
     28  O         40.7220   35.2800   58.1090 O.2   183  ASP183     -0.2864
     29  CB        42.3720   32.3990   57.2880 C.3   183  ASP183      0.1436
     30  CG        42.7870   31.0390   57.8450 C.2   183  ASP183      0.3671
     31  OD1       42.3330   30.6660   58.9560 O.co2 183  ASP183     -0.2456
     32  OD2       43.5920   30.3450   57.1790 O.co2 183  ASP183     -0.2456
     33  N         42.9540   29.7690   54.3150 N.3   209  ASN209     -0.1240
     34  CA        41.6160   29.3860   53.9260 C.3   209  ASN209      0.1653
     35  C         40.8500   30.6900   53.6930 C.2   209  ASN209      0.2266
     36  O         40.4890   31.3870   54.6440 O.2   209  ASN209     -0.2867
     37  CB        40.9730   28.5680   55.0460 C.3   209  ASN209      0.1155
     38  CG        39.5170   28.2960   54.7950 C.2   209  ASN209      0.2627
     39  OD1       39.0900   28.1210   53.6440 O.2   209  ASN209     -0.2716
     40  ND2       38.7370   28.2450   55.8660 N.am  209  ASN209     -0.0877
     41  N         38.4050   35.3580   60.5140 N.3   251  ILE251     -0.1245
     42  CA        39.2870   36.0320   61.4470 C.3   251  ILE251      0.1561
     43  C         39.5520   37.4450   60.9300 C.2   251  ILE251      0.2260
     44  O         39.5860   38.4060   61.7000 O.2   251  ILE251     -0.2867
     45  CB        40.6110   35.2730   61.5760 C.3   251  ILE251      0.0252
     46  CG1       40.4260   34.0810   62.5150 C.3   251  ILE251      0.0019
     47  CG2       41.6940   36.1900   62.0790 C.3   251  ILE251      0.0019
     48  CD1       41.6100   33.1810   62.5590 C.3   251  ILE251      0.0001
     49  N         47.1880   36.7910   63.8110 N.3   313  LEU313     -0.1231
     50  CA        45.8260   36.8120   64.3410 C.3   313  LEU313      0.1693
     51  C         45.2410   35.4420   64.6510 C.2   313  LEU313      0.2592
     52  O         44.5470   35.2850   65.6620 O.2   313  LEU313     -0.2718
     53  CB        44.8830   37.5510   63.3810 C.3   313  LEU313      0.0284
     54  CG        45.0620   39.0690   63.3630 C.3   313  LEU313      0.0019
     55  CD1       44.2690   39.6760   62.2260 C.3   313  LEU313      0.0001
     56  CD2       44.6280   39.6320   64.7010 C.3   313  LEU313      0.0001
     57  N         45.5080   34.4490   63.8030 N.am  314  LYS314     -0.1966
     58  CA        44.9470   33.1280   64.0600 C.3   314  LYS314      0.1728
     59  C         45.5790   32.4080   65.2350 C.2   314  LYS314      0.2616
     60  O         45.0170   31.4420   65.7390 O.2   314  LYS314     -0.2715
     61  CB        44.9810   32.2470   62.8070 C.3   314  LYS314      0.0311
     62  CG        46.2750   32.2320   62.0610 C.3   314  LYS314      0.0038
     63  CD        46.0730   31.6540   60.6610 C.3   314  LYS314      0.0206
     64  CE        45.5110   30.2450   60.7150 C.3   314  LYS314      0.1093
     65  NZ        45.6340   29.5670   59.3970 N.3   314  LYS314     -0.1314
     66  N         46.7320   32.8810   65.6930 N.am  315  HIS315     -0.1973
     67  CA        47.3670   32.2510   66.8450 C.3   315  HIS315      0.1656
     68  C         47.0850   33.0160   68.1340 C.2   315  HIS315      0.2291
     69  O         46.8870   32.4290   69.2010 O.2   315  HIS315     -0.2864
     70  CB        48.8840   32.1550   66.6620 C.3   315  HIS315      0.0771
     71  CG        49.6250   31.9260   67.9450 C.ar  315  HIS315      0.0820
     72  ND1       49.8830   32.9390   68.8450 N.ar  315  HIS315     -0.2267
     73  CD2       50.1110   30.7920   68.5080 C.ar  315  HIS315      0.1154
     74  CE1       50.4950   32.4400   69.9050 C.ar  315  HIS315      0.1986
     75  NE2       50.6440   31.1390   69.7270 N.ar  315  HIS315     -0.2212
     76  N         44.6670   34.9820   70.1680 N.3   317  ASP317     -0.1239
     77  CA        43.2980   35.3900   70.4170 C.3   317  ASP317      0.1674
     78  C         43.3180   36.7640   71.0980 C.2   317  ASP317      0.2266
     79  O         42.4570   37.6030   70.8560 O.2   317  ASP317     -0.2867
     80  CB        42.5980   34.3530   71.2990 C.3   317  ASP317      0.1410
     81  CG        41.0820   34.4260   71.2000 C.2   317  ASP317      0.3668
     82  OD1       40.5490   34.3890   70.0620 O.co2 317  ASP317     -0.2456
     83  OD2       40.4220   34.5120   72.2640 O.co2 317  ASP317     -0.2456
     84  N         43.8640   39.4440   68.5310 N.3   320  ARG320     -0.1245
     85  CA        42.6800   39.5640   67.6970 C.3   320  ARG320      0.1563
     86  C         41.6000   40.3830   68.4090 C.2   320  ARG320      0.2260
     87  O         41.0830   41.3550   67.8520 O.2   320  ARG320     -0.2867
     88  CB        42.1530   38.1690   67.3370 C.3   320  ARG320      0.0307
     89  CG        41.1960   38.1320   66.1560 C.3   320  ARG320      0.0489
     90  CD        40.7070   36.7120   65.9140 C.3   320  ARG320      0.2205
     91  NE        40.0940   36.1570   67.1210 N.pl3 320  ARG320     -0.0865
     92  CZ        38.8590   36.4270   67.5320 C.cat 320  ARG320      0.5346
     93  NH1       38.0830   37.2390   66.8300 N.pl3 320  ARG320      0.1354
     94  NH2       38.4100   35.9080   68.6660 N.pl3 320  ARG320      0.1354
@<TRIPOS>BOND
     1    39    38    2
     2    35    34    1
     3    35    36    2
     4    34    33    1
     5    34    37    1
     6    38    37    1
     7    38    40   am
     8    24    22    1
     9    23    22    1
    10    22    21    1
    11    21    18    1
    12    32    30   ar
    13    29    30    1
    14    29    26    1
    15    27    26    1
    16    27    28    2
    17    25    26    1
    18    25    19   am
    19    18    19    1
    20    18    17    1
    21    13    12    2
    22    30    31   ar
    23    19    20    2
    24    17    12   am
    25    12    11    1
    26    15    14    1
    27    65    64    1
    28    14    11    1
    29    14    16    1
    30    11    10    1
    31    41    42    1
    32    63    64    1
    33    63    62    1
    34    10     3   am
    35    43    42    1
    36    43    44    2
    37    42    45    1
    38    45    47    1
    39    45    46    1
    40    62    61    1
    41     3     4    2
    42     3     2    1
    43    55    54    1
    44    46    48    1
    45    61    58    1
    46     2     5    1
    47     2     1    1
    48     7     8    1
    49     7     6    1
    50     5     6    1
    51    54    53    1
    52    54    56    1
    53    53    50    1
    54    57    58    1
    55    57    51   am
    56    49    50    1
    57     9     8    1
    58    58    59    1
    59    50    51    1
    60    51    52    2
    61    59    66   am
    62    59    60    2
    63    66    67    1
    64    90    89    1
    65    90    91    1
    66    89    88    1
    67    70    67    1
    68    70    71    1
    69    93    92    1
    70    67    68    1
    71    91    92    2
    72    88    85    1
    73    92    94    1
    74    85    86    1
    75    85    84    1
    76    87    86    2
    77    71    73   ar
    78    71    72   ar
    79    68    69    2
    80    73    75   ar
    81    72    74   ar
    82    75    74   ar
    83    82    81   ar
    84    76    77    1
    85    77    78    1
    86    77    80    1
    87    79    78    2
    88    81    80    1
    89    81    83   ar
