@<TRIPOS>MOLECULE
tmp/1sy7A00.pdb
 231 222 0 0 0
SMALL
GASTEIGER

@<TRIPOS>ATOM
      1  N         -5.9160  -14.1420   -2.3000 N.3    51  ARG51      -0.1231
      2  CA        -7.3400  -13.8960   -2.0770 C.3    51  ARG51       0.1694
      3  C         -7.6790  -14.4080   -0.6730 C.2    51  ARG51       0.2592
      4  O         -7.2120  -15.4730   -0.2780 O.2    51  ARG51      -0.2718
      5  CB        -8.1700  -14.6540   -3.1220 C.3    51  ARG51       0.0321
      6  CG        -7.9180  -14.2230   -4.5620 C.3    51  ARG51       0.0489
      7  CD        -8.4870  -15.2540   -5.5360 C.3    51  ARG51       0.2205
      8  NE        -8.5030  -14.7850   -6.9210 N.pl3  51  ARG51      -0.0865
      9  CZ        -7.4250  -14.6500   -7.6890 C.cat  51  ARG51       0.5346
     10  NH1       -6.2230  -14.9530   -7.2140 N.pl3  51  ARG51       0.1354
     11  NH2       -7.5480  -14.2110   -8.9380 N.pl3  51  ARG51       0.1354
     12  N         -8.4950  -13.6690    0.0730 N.am   52  VAL52      -0.1966
     13  CA        -8.8420  -14.0800    1.4330 C.3    52  VAL52       0.1727
     14  C         -9.5410  -15.4550    1.4430 C.2    52  VAL52       0.2616
     15  O         -9.4260  -16.2100    2.4090 O.2    52  VAL52      -0.2715
     16  CB        -9.6810  -12.9790    2.1360 C.3    52  VAL52       0.0290
     17  CG1      -10.9990  -12.8250    1.4510 C.3    52  VAL52       0.0023
     18  CG2       -9.8610  -13.3010    3.6040 C.3    52  VAL52       0.0023
     19  N        -10.2640  -15.7640    0.3680 N.am   53  VAL53      -0.1963
     20  CA       -10.8910  -17.0810    0.1840 C.3    53  VAL53       0.1727
     21  C        -10.6420  -17.4350   -1.2840 C.2    53  VAL53       0.2616
     22  O        -10.4350  -16.5400   -2.1090 O.2    53  VAL53      -0.2715
     23  CB       -12.4350  -17.1070    0.4710 C.3    53  VAL53       0.0290
     24  CG1      -12.6820  -17.1360    1.9810 C.3    53  VAL53       0.0023
     25  CG2      -13.1300  -15.9200   -0.1750 C.3    53  VAL53       0.0023
     26  N        -10.6340  -18.7300   -1.6020 N.am   54  HIS54      -0.1973
     27  CA       -10.3950  -19.2000   -2.9680 C.3    54  HIS54       0.1656
     28  C         -8.9950  -18.8190   -3.4410 C.2    54  HIS54       0.2291
     29  O         -8.7770  -18.5850   -4.6280 O.2    54  HIS54      -0.2864
     30  CB       -11.4430  -18.6050   -3.9200 C.3    54  HIS54       0.0771
     31  CG       -12.8460  -19.0370   -3.6190 C.ar   54  HIS54       0.0820
     32  ND1      -13.4670  -20.0710   -4.2870 N.ar   54  HIS54      -0.2267
     33  CD2      -13.7440  -18.5830   -2.7130 C.ar   54  HIS54       0.1154
     34  CE1      -14.6870  -20.2350   -3.8070 C.ar   54  HIS54       0.1986
     35  NE2      -14.8810  -19.3440   -2.8510 N.ar   54  HIS54      -0.2212
     36  N        -11.9140  -19.0000  -13.7750 N.3    91  ARG91      -0.1245
     37  CA       -10.9540  -19.3980  -12.7550 C.3    91  ARG91       0.1563
     38  C        -11.6740  -20.3590  -11.8230 C.2    91  ARG91       0.2260
     39  O        -12.7570  -20.0500  -11.3160 O.2    91  ARG91      -0.2867
     40  CB       -10.4300  -18.1930  -11.9540 C.3    91  ARG91       0.0307
     41  CG        -9.3900  -18.5690  -10.8690 C.3    91  ARG91       0.0489
     42  CD        -8.7370  -17.3260  -10.2440 C.3    91  ARG91       0.2205
     43  NE        -7.7520  -17.6520   -9.2080 N.pl3  91  ARG91      -0.0865
     44  CZ        -8.0470  -17.9890   -7.9550 C.cat  91  ARG91       0.5346
     45  NH1       -9.3090  -18.0530   -7.5500 N.pl3  91  ARG91       0.1354
     46  NH2       -7.0730  -18.2380   -7.0950 N.pl3  91  ARG91       0.1354
     47  N        -11.2740  -22.9000   -8.3400 N.3    93  SER93      -0.1217
     48  CA       -10.5000  -22.8160   -7.1090 C.3    93  SER93       0.1889
     49  C        -11.0800  -23.6480   -5.9760 C.2    93  SER93       0.2288
     50  O        -12.1700  -24.2100   -6.0890 O.2    93  SER93      -0.2866
     51  CB       -10.4790  -21.3570   -6.6530 C.3    93  SER93       0.2089
     52  OG       -11.8170  -20.8920   -6.4720 O.3    93  SER93      -0.2183
     53  N        -14.5990  -23.3080   -6.4030 N.3   110  GLY110     -0.1210
     54  CA       -15.0590  -22.0760   -7.0210 C.3   110  GLY110      0.1956
     55  C        -15.1210  -22.2710   -8.5290 C.2   110  GLY110      0.2612
     56  O        -14.3020  -22.9960   -9.0960 O.2   110  GLY110     -0.2717
     57  N        -16.0810  -21.6150   -9.1750 N.am  111  PHE111     -0.1962
     58  CA       -16.2860  -21.7210  -10.6220 C.3   111  PHE111      0.1771
     59  C        -16.6860  -20.3080  -11.0400 C.2   111  PHE111      0.2619
     60  O        -17.8730  -19.9860  -11.1280 O.2   111  PHE111     -0.2715
     61  CB       -17.4280  -22.7150  -10.8770 C.3   111  PHE111      0.0574
     62  CG       -17.5570  -23.1760  -12.3100 C.ar  111  PHE111     -0.0200
     63  CD1      -17.4880  -22.2740  -13.3660 C.ar  111  PHE111     -0.0042
     64  CD2      -17.8340  -24.5120  -12.5920 C.ar  111  PHE111     -0.0042
     65  CE1      -17.7000  -22.6950  -14.6840 C.ar  111  PHE111     -0.0003
     66  CE2      -18.0480  -24.9400  -13.9040 C.ar  111  PHE111     -0.0003
     67  CZ       -17.9810  -24.0260  -14.9510 C.ar  111  PHE111     -0.0000
     68  N        -15.6900  -19.4630  -11.2780 N.am  112  ALA112     -0.1977
     69  CA       -15.9350  -18.0640  -11.6230 C.3   112  ALA112      0.1597
     70  C        -15.7170  -17.7680  -13.0920 C.2   112  ALA112      0.2287
     71  O        -14.6480  -18.0450  -13.6420 O.2   112  ALA112     -0.2864
     72  CB       -15.0440  -17.1540  -10.7600 C.3   112  ALA112      0.0319
     73  N        -20.0400  -15.4040  -10.5320 N.3   125  VAL125     -0.1231
     74  CA       -19.1350  -15.9610   -9.5340 C.3   125  VAL125      0.1692
     75  C        -19.8240  -17.0890   -8.7780 C.2   125  VAL125      0.2593
     76  O        -20.4660  -16.8560   -7.7620 O.2   125  VAL125     -0.2718
     77  CB       -18.7010  -14.8470   -8.5550 C.3   125  VAL125      0.0266
     78  CG1      -17.4780  -15.2770   -7.7780 C.3   125  VAL125      0.0020
     79  CG2      -18.4140  -13.5730   -9.3290 C.3   125  VAL125      0.0020
     80  N        -19.6940  -18.3140   -9.2820 N.am  126  GLY126     -0.1942
     81  CA       -20.3490  -19.4360   -8.6310 C.3   126  GLY126      0.2014
     82  C        -19.4470  -20.4780   -7.9940 C.2   126  GLY126      0.2638
     83  O        -18.2320  -20.3040   -7.9260 O.2   126  GLY126     -0.2714
     84  N        -20.0620  -21.5540   -7.5070 N.am  127  ASN127     -0.1972
     85  CA       -19.3510  -22.6680   -6.8860 C.3   127  ASN127      0.1688
     86  C        -19.8600  -23.9560   -7.5240 C.2   127  ASN127      0.2292
     87  O        -20.8180  -23.9310   -8.3000 O.2   127  ASN127     -0.2864
     88  CB       -19.6030  -22.7250   -5.3720 C.3   127  ASN127      0.1181
     89  CG       -18.7040  -21.7910   -4.5900 C.2   127  ASN127      0.2629
     90  OD1      -17.6930  -21.3130   -5.1000 O.2   127  ASN127     -0.2716
     91  ND2      -19.0660  -21.5340   -3.3360 N.am  127  ASN127     -0.0877
     92  N        -25.2660  -22.7170    0.0660 N.3   132  PHE132     -0.1241
     93  CA       -24.1690  -22.2540    0.9060 C.3   132  PHE132      0.1605
     94  C        -24.4350  -22.4850    2.3940 C.2   132  PHE132      0.2264
     95  O        -25.5480  -22.8390    2.7870 O.2   132  PHE132     -0.2867
     96  CB       -23.8780  -20.7740    0.6360 C.3   132  PHE132      0.0534
     97  CG       -22.4490  -20.3960    0.8930 C.ar  132  PHE132     -0.0203
     98  CD1      -21.4300  -20.9600    0.1310 C.ar  132  PHE132     -0.0042
     99  CD2      -22.1150  -19.5200    1.9240 C.ar  132  PHE132     -0.0042
    100  CE1      -20.0920  -20.6630    0.3900 C.ar  132  PHE132     -0.0003
    101  CE2      -20.7770  -19.2140    2.1940 C.ar  132  PHE132     -0.0003
    102  CZ       -19.7640  -19.7880    1.4250 C.ar  132  PHE132     -0.0000
    103  N        -24.9310  -12.6230    4.4830 N.3   137  ALA137     -0.1245
    104  CA       -23.5250  -12.3440    4.1950 C.3   137  ALA137      0.1562
    105  C        -22.7300  -11.8880    5.4180 C.2   137  ALA137      0.2260
    106  O        -21.5120  -12.0760    5.4830 O.2   137  ALA137     -0.2867
    107  CB       -23.4240  -11.2860    3.0940 C.3   137  ALA137      0.0290
    108  N        -20.2440  -14.4060    6.8690 N.3   140  PHE140     -0.1241
    109  CA       -19.1900  -15.0390    6.0870 C.3   140  PHE140      0.1605
    110  C        -17.8940  -15.1510    6.8980 C.2   140  PHE140      0.2264
    111  O        -17.2130  -16.1810    6.8620 O.2   140  PHE140     -0.2867
    112  CB       -18.9320  -14.2620    4.7950 C.3   140  PHE140      0.0534
    113  CG       -18.1840  -15.0510    3.7570 C.ar  140  PHE140     -0.0203
    114  CD1      -18.7270  -16.2190    3.2280 C.ar  140  PHE140     -0.0042
    115  CD2      -16.9500  -14.6180    3.2880 C.ar  140  PHE140     -0.0042
    116  CE1      -18.0560  -16.9390    2.2460 C.ar  140  PHE140     -0.0003
    117  CE2      -16.2670  -15.3320    2.3020 C.ar  140  PHE140     -0.0003
    118  CZ       -16.8190  -16.4920    1.7790 C.ar  140  PHE140     -0.0000
    119  N        -25.6390  -20.1560   -7.3640 N.3   200  VAL200     -0.1231
    120  CA       -26.0240  -20.2990   -5.9580 C.3   200  VAL200      0.1692
    121  C        -27.0720  -19.2890   -5.5180 C.2   200  VAL200      0.2592
    122  O        -28.1730  -19.6690   -5.1160 O.2   200  VAL200     -0.2718
    123  CB       -24.8050  -20.2180   -5.0080 C.3   200  VAL200      0.0266
    124  CG1      -25.2430  -20.5190   -3.5820 C.3   200  VAL200      0.0020
    125  CG2      -23.7560  -21.2310   -5.4470 C.3   200  VAL200      0.0020
    126  N        -26.7420  -18.0070   -5.5920 N.am  201  ASN201     -0.1974
    127  CA       -27.6970  -16.9750   -5.2070 C.3   201  ASN201      0.1688
    128  C        -28.7790  -16.8280   -6.2790 C.2   201  ASN201      0.2292
    129  O        -28.5850  -17.2130   -7.4310 O.2   201  ASN201     -0.2864
    130  CB       -26.9940  -15.6170   -5.0650 C.3   201  ASN201      0.1181
    131  CG       -26.0970  -15.5380   -3.8520 C.2   201  ASN201      0.2629
    132  OD1      -24.9210  -15.1860   -3.9720 O.2   201  ASN201     -0.2716
    133  ND2      -26.6340  -15.8660   -2.6820 N.am  201  ASN201     -0.0877
    134  N         -6.7010  -11.6630  -11.8560 N.3   315  ILE315     -0.1245
    135  CA        -8.0780  -11.4490  -12.2990 C.3   315  ILE315      0.1561
    136  C         -9.0010  -11.2240  -11.1000 C.2   315  ILE315      0.2260
    137  O         -8.8580  -11.8690  -10.0520 O.2   315  ILE315     -0.2867
    138  CB        -8.6080  -12.6270  -13.1670 C.3   315  ILE315      0.0252
    139  CG1       -9.9570  -12.2370  -13.7860 C.3   315  ILE315      0.0019
    140  CG2       -8.7640  -13.8890  -12.3260 C.3   315  ILE315      0.0019
    141  CD1      -10.4260  -13.1610  -14.9040 C.3   315  ILE315      0.0001
    142  N        -13.1010  -10.9040   -9.9510 N.3   317  PHE317     -0.1241
    143  CA       -14.5100  -11.1080  -10.2700 C.3   317  PHE317      0.1605
    144  C        -15.3110  -10.4580   -9.1530 C.2   317  PHE317      0.2264
    145  O        -14.7820  -10.1890   -8.0740 O.2   317  PHE317     -0.2867
    146  CB       -14.8910  -12.5960  -10.2740 C.3   317  PHE317      0.0534
    147  CG       -14.0740  -13.4540  -11.1980 C.ar  317  PHE317     -0.0203
    148  CD1      -12.8490  -13.9670  -10.7900 C.ar  317  PHE317     -0.0042
    149  CD2      -14.5540  -13.7980  -12.4590 C.ar  317  PHE317     -0.0042
    150  CE1      -12.1170  -14.8160  -11.6150 C.ar  317  PHE317     -0.0003
    151  CE2      -13.8290  -14.6450  -13.2930 C.ar  317  PHE317     -0.0003
    152  CZ       -12.6090  -15.1570  -12.8700 C.ar  317  PHE317     -0.0000
    153  N        -27.7930  -13.1640    1.0650 N.3   333  LEU333     -0.1245
    154  CA       -26.4050  -13.5990    0.9730 C.3   333  LEU333      0.1561
    155  C        -25.7820  -12.8070   -0.1740 C.2   333  LEU333      0.2260
    156  O        -24.6670  -12.2900   -0.0720 O.2   333  LEU333     -0.2867
    157  CB       -26.3170  -15.0990    0.6910 C.3   333  LEU333      0.0270
    158  CG       -24.9030  -15.6800    0.7650 C.3   333  LEU333      0.0019
    159  CD1      -24.2950  -15.3650    2.1280 C.3   333  LEU333      0.0001
    160  CD2      -24.9520  -17.1900    0.5350 C.3   333  LEU333      0.0001
    161  N        -24.9350   -8.8150    0.4790 N.3   336  GLY336     -0.1210
    162  CA       -23.6570   -8.4520    1.0720 C.3   336  GLY336      0.1956
    163  C        -22.4570   -8.7540    0.1860 C.2   336  GLY336      0.2611
    164  O        -21.4230   -8.0960    0.2940 O.2   336  GLY336     -0.2717
    165  N        -22.5870   -9.7560   -0.6790 N.am  337  ARG337     -0.1979
    166  CA       -21.5110  -10.1270   -1.5900 C.3   337  ARG337      0.1597
    167  C        -21.1470   -8.9490   -2.4780 C.2   337  ARG337      0.2287
    168  O        -19.9780   -8.6890   -2.7170 O.2   337  ARG337     -0.2864
    169  CB       -21.9320  -11.2970   -2.4890 C.3   337  ARG337      0.0334
    170  CG       -22.0610  -12.6150   -1.7750 C.3   337  ARG337      0.0492
    171  CD       -22.3110  -13.7550   -2.7520 C.3   337  ARG337      0.2205
    172  NE       -21.1460  -14.0330   -3.5970 N.pl3 337  ARG337     -0.0865
    173  CZ       -21.1900  -14.7790   -4.6940 C.cat 337  ARG337      0.5346
    174  NH1      -22.3400  -15.3180   -5.0780 N.pl3 337  ARG337      0.1354
    175  NH2      -20.0940  -14.9830   -5.4130 N.pl3 337  ARG337      0.1354
    176  N        -20.9940   -5.9100   -1.9750 N.3   339  PHE339     -0.1227
    177  CA       -20.0980   -4.9750   -1.2950 C.3   339  PHE339      0.1736
    178  C        -18.6610   -5.4880   -1.2630 C.2   339  PHE339      0.2596
    179  O        -17.7040   -4.7450   -1.5050 O.2   339  PHE339     -0.2718
    180  CB       -20.5760   -4.7660    0.1470 C.3   339  PHE339      0.0547
    181  CG       -19.5900   -4.0290    1.0220 C.ar  339  PHE339     -0.0202
    182  CD1      -19.5140   -2.6440    0.9930 C.ar  339  PHE339     -0.0042
    183  CD2      -18.7410   -4.7290    1.8760 C.ar  339  PHE339     -0.0042
    184  CE1      -18.6040   -1.9560    1.8080 C.ar  339  PHE339     -0.0003
    185  CE2      -17.8270   -4.0560    2.6960 C.ar  339  PHE339     -0.0003
    186  CZ       -17.7600   -2.6680    2.6630 C.ar  339  PHE339     -0.0000
    187  N        -18.5220   -6.7750   -0.9830 N.am  340  SER340     -0.1938
    188  CA       -17.2120   -7.3940   -0.8370 C.3   340  SER340      0.2055
    189  C        -16.2370   -7.4690   -2.0140 C.2   340  SER340      0.2643
    190  O        -15.0630   -7.1440   -1.8470 O.2   340  SER340     -0.2714
    191  CB       -17.3900   -8.7920   -0.2520 C.3   340  SER340      0.2130
    192  OG       -16.1410   -9.3600    0.0660 O.3   340  SER340     -0.2179
    193  N        -16.6900   -7.8870   -3.1950 N.am  341  TYR341     -0.1973
    194  CA       -15.7570   -8.0150   -4.3130 C.3   341  TYR341      0.1639
    195  C        -15.1200   -6.7130   -4.7820 C.2   341  TYR341      0.2290
    196  O        -14.0960   -6.7450   -5.4550 O.2   341  TYR341     -0.2864
    197  CB       -16.4050   -8.7630   -5.4990 C.3   341  TYR341      0.0560
    198  CG       -16.9460  -10.1110   -5.0970 C.ar  341  TYR341     -0.0198
    199  CD1      -18.2260  -10.2260   -4.5590 C.ar  341  TYR341     -0.0009
    200  CD2      -16.1750  -11.2650   -5.2280 C.ar  341  TYR341     -0.0009
    201  CE1      -18.7250  -11.4440   -4.1640 C.ar  341  TYR341      0.0417
    202  CE2      -16.6710  -12.4920   -4.8330 C.ar  341  TYR341      0.0417
    203  CZ       -17.9440  -12.5720   -4.3050 C.ar  341  TYR341      0.1957
    204  OH       -18.4540  -13.7810   -3.9340 O.3   341  TYR341     -0.2866
    205  N        -12.4870   -5.7280   -1.2710 N.3   344  THR344     -0.1203
    206  CA       -11.2780   -6.5360   -1.1360 C.3   344  THR344      0.1994
    207  C        -10.1740   -6.2510   -2.1600 C.2   344  THR344      0.2617
    208  O         -8.9840   -6.3950   -1.8520 O.2   344  THR344     -0.2717
    209  CB       -11.6310   -8.0440   -1.1640 C.3   344  THR344      0.1784
    210  OG1      -10.5400   -8.7960   -0.6210 O.3   344  THR344     -0.2211
    211  CG2      -11.9070   -8.5210   -2.5930 C.3   344  THR344      0.0376
    212  N        -10.5550   -5.8400   -3.3690 N.am  345  GLN345     -0.1979
    213  CA        -9.5710   -5.5510   -4.4240 C.3   345  GLN345      0.1601
    214  C         -8.6410   -4.3810   -4.0870 C.2   345  GLN345      0.2287
    215  O         -7.5270   -4.2870   -4.6060 O.2   345  GLN345     -0.2864
    216  CB       -10.2800   -5.2390   -5.7520 C.3   345  GLN345      0.0394
    217  CG       -11.4550   -6.1580   -6.0930 C.3   345  GLN345      0.0908
    218  CD       -11.0690   -7.6140   -6.2180 C.2   345  GLN345      0.2608
    219  OE1       -9.8880   -7.9700   -6.2360 O.2   345  GLN345     -0.2717
    220  NE2      -12.0690   -8.4680   -6.3280 N.am  345  GLN345     -0.0878
    221  N         -5.8590   -6.1820   -2.2400 N.3   348  ARG348     -0.1245
    222  CA        -5.3010   -7.3070   -2.9830 C.3   348  ARG348      0.1563
    223  C         -4.5960   -6.8770   -4.2610 C.2   348  ARG348      0.2260
    224  O         -3.4820   -7.3190   -4.5370 O.2   348  ARG348     -0.2867
    225  CB        -6.3860   -8.3350   -3.3330 C.3   348  ARG348      0.0307
    226  CG        -5.8170   -9.6040   -3.9670 C.3   348  ARG348      0.0489
    227  CD        -6.8520  -10.7190   -4.0560 C.3   348  ARG348      0.2205
    228  NE        -7.7600  -10.5580   -5.1880 N.pl3 348  ARG348     -0.0865
    229  CZ        -7.4720  -10.9100   -6.4370 C.cat 348  ARG348      0.5346
    230  NH1       -6.2950  -11.4470   -6.7260 N.pl3 348  ARG348      0.1354
    231  NH2       -8.3630  -10.7240   -7.4010 N.pl3 348  ARG348      0.1354
@<TRIPOS>BOND
     1    67    65   ar
     2    67    66   ar
     3   141   139    1
     4    65    63   ar
     5    66    64   ar
     6   139   138    1
     7    36    37    1
     8    71    70    2
     9    63    62   ar
    10   151   152   ar
    11   151   149   ar
    12   138   140    1
    13   138   135    1
    14    70    69    1
    15   152   150   ar
    16    37    40    1
    17    37    38    1
    18    64    62   ar
    19   149   147   ar
    20    62    61    1
    21   135   134    1
    22   135   136    1
    23    40    41    1
    24    38    39    2
    25    69    68    1
    26    69    72    1
    27   150   148   ar
    28    68    59   am
    29   147   148   ar
    30   147   146    1
    31    60    59    2
    32   136   137    2
    33    59    58    1
    34    61    58    1
    35    41    42    1
    36    58    57    1
    37    73    74    1
    38   146   143    1
    39   143   142    1
    40   143   144    1
    41    42    43    1
    42    74    75    1
    43    74    77    1
    44    79    77    1
    45    80    75   am
    46    80    81    1
    47    43    44    2
    48    57    55   am
    49   144   145    2
    50    56    55    2
    51    11     9    1
    52    75    76    2
    53    81    82    1
    54    77    78    1
    55    55    54    1
    56    47    48    1
    57    87    86    2
    58    82    83    2
    59    82    84   am
    60    44    45    1
    61    44    46    1
    62     9    10    1
    63     9     8    2
    64    86    85    1
    65    84    85    1
    66   129   128    2
    67   231   229    1
    68   119   120    1
    69    48    51    1
    70    48    49    1
    71    54    53    1
    72     8     7    1
    73    85    88    1
    74   230   229    1
    75    51    52    1
    76   229   228    2
    77   220   218   am
    78   128   127    1
    79   219   218    2
    80   218   217    1
    81   217   216    1
    82    50    49    2
    83   120   121    1
    84   120   123    1
    85   216   213    1
    86   126   121   am
    87   126   127    1
    88     7     6    1
    89   121   122    2
    90   197   198    1
    91   197   194    1
    92   196   195    2
    93   125   123    1
    94   175   173    1
    95    88    89    1
    96   200   198   ar
    97   200   202   ar
    98   127   130    1
    99   228   227    1
   100    90    89    2
   101   198   199   ar
   102   174   173    1
   103   130   131    1
   104   123   124    1
   105   202   203   ar
   106   195   194    1
   107   173   172    2
   108    29    28    2
   109   215   214    2
   110    89    91   am
   111     6     5    1
   112   199   201   ar
   113   224   223    2
   114   213   214    1
   115   213   212    1
   116   194   193    1
   117   203   201   ar
   118   203   204    1
   119    32    34   ar
   120    32    31   ar
   121   223   222    1
   122   227   226    1
   123   132   131    2
   124   226   225    1
   125    30    31    1
   126    30    27    1
   127   131   133   am
   128    34    35   ar
   129    31    33   ar
   130   172   171    1
   131    28    27    1
   132   212   207   am
   133   225   222    1
   134   193   189   am
   135     5     2    1
   136   222   221    1
   137    27    26    1
   138    35    33   ar
   139   171   170    1
   140   168   167    2
   141   211   209    1
   142   169   170    1
   143   169   166    1
   144   167   166    1
   145     1     2    1
   146   207   208    2
   147   207   206    1
   148    22    21    2
   149     2     3    1
   150   189   190    2
   151   189   188    1
   152   176   177    1
   153    26    21   am
   154   166   165    1
   155   179   178    2
   156   177   178    1
   157   177   180    1
   158    21    20    1
   159   205   206    1
   160   178   187   am
   161   209   206    1
   162   209   210    1
   163   187   188    1
   164   188   191    1
   165   165   163   am
   166     3     4    2
   167     3    12   am
   168   191   192    1
   169    25    23    1
   170   155   156    2
   171   155   154    1
   172    92    93    1
   173    12    13    1
   174    98   100   ar
   175    98    97   ar
   176   180   181    1
   177    20    19    1
   178    20    23    1
   179   163   164    2
   180   163   162    1
   181    19    14   am
   182   100   102   ar
   183    23    24    1
   184   161   162    1
   185   160   158    1
   186    96    97    1
   187    96    93    1
   188   157   158    1
   189   157   154    1
   190   158   159    1
   191    97    99   ar
   192    93    94    1
   193   154   153    1
   194   182   181   ar
   195   182   184   ar
   196   181   183   ar
   197   102   101   ar
   198    13    14    1
   199    13    16    1
   200    14    15    2
   201    17    16    1
   202   118   116   ar
   203   118   117   ar
   204   184   186   ar
   205   183   185   ar
   206    99   101   ar
   207    16    18    1
   208   116   114   ar
   209   117   115   ar
   210    94    95    2
   211   186   185   ar
   212   107   104    1
   213   114   113   ar
   214   115   113   ar
   215   113   112    1
   216   104   103    1
   217   104   105    1
   218   112   109    1
   219   105   106    2
   220   109   108    1
   221   109   110    1
   222   111   110    2
