@<TRIPOS>MOLECULE
tmp/1syhA00.pdb
 153 146 0 0 0
SMALL
GASTEIGER

@<TRIPOS>ATOM
      1  N         11.4500   12.8630   23.7370 N.3    11  GLU11      -0.1245
      2  CA        12.3850   12.9030   22.6210 C.3    11  GLU11       0.1567
      3  C         12.1120   11.6580   21.7890 C.2    11  GLU11       0.2260
      4  O         12.3160   10.5360   22.2570 O.2    11  GLU11      -0.2867
      5  CB        13.8230   12.8820   23.1550 C.3    11  GLU11       0.0388
      6  CG        14.9080   12.7530   22.0820 C.3    11  GLU11       0.1160
      7  CD        15.2190   14.0590   21.3740 C.2    11  GLU11       0.3649
      8  OE1       14.2860   14.8340   21.0830 O.co2  11  GLU11      -0.2457
      9  OE2       16.4050   14.3030   21.0960 O.co2  11  GLU11      -0.2457
     10  N         12.3770    7.8290   21.6830 N.3    14  TYR14      -0.1241
     11  CA        12.5700    7.2740   23.0300 C.3    14  TYR14       0.1605
     12  C         11.3400    7.4000   23.9210 C.2    14  TYR14       0.2264
     13  O         10.9020    6.4210   24.5340 O.2    14  TYR14      -0.2867
     14  CB        13.7870    7.9420   23.6880 C.3    14  TYR14       0.0534
     15  CG        15.0650    7.6730   22.9250 C.ar   14  TYR14      -0.0201
     16  CD1       15.7030    6.4360   23.0190 C.ar   14  TYR14      -0.0009
     17  CD2       15.6080    8.6310   22.0620 C.ar   14  TYR14      -0.0009
     18  CE1       16.8420    6.1580   22.2780 C.ar   14  TYR14       0.0417
     19  CE2       16.7520    8.3600   21.3110 C.ar   14  TYR14       0.0417
     20  CZ        17.3600    7.1250   21.4260 C.ar   14  TYR14       0.1957
     21  OH        18.4910    6.8390   20.6980 O.3    14  TYR14      -0.2866
     22  N         19.6040   17.0540   30.0450 N.3    59  TYR59      -0.1241
     23  CA        20.1550   15.7400   30.3550 C.3    59  TYR59       0.1605
     24  C         20.9600   15.7780   31.6520 C.2    59  TYR59       0.2264
     25  O         20.6760   15.0060   32.5790 O.2    59  TYR59      -0.2867
     26  CB        20.9900   15.2240   29.1710 C.3    59  TYR59       0.0534
     27  CG        20.0830   14.7910   28.0380 C.ar   59  TYR59      -0.0201
     28  CD1       19.4880   15.7380   27.1910 C.ar   59  TYR59      -0.0009
     29  CD2       19.7070   13.4470   27.8970 C.ar   59  TYR59      -0.0009
     30  CE1       18.5370   15.3600   26.2460 C.ar   59  TYR59       0.0417
     31  CE2       18.7530   13.0550   26.9500 C.ar   59  TYR59       0.0417
     32  CZ        18.1740   14.0250   26.1340 C.ar   59  TYR59       0.1957
     33  OH        17.2130   13.6750   25.2190 O.3    59  TYR59      -0.2866
     34  N         17.9170    8.6780   26.6560 N.3    87  PRO87      -0.2102
     35  CA        19.1450    8.5720   25.8550 C.3    87  PRO87       0.1504
     36  C         20.1940    9.4740   26.5060 C.2    87  PRO87       0.2576
     37  O         20.5610   10.5320   25.9870 O.2    87  PRO87      -0.2718
     38  CB        18.6940    9.0450   24.4730 C.3    87  PRO87       0.0282
     39  CG        17.6230   10.0450   24.7980 C.3    87  PRO87       0.0208
     40  CD        16.8510    9.3730   25.9040 C.3    87  PRO87       0.0893
     41  N         20.6300    9.0330   27.6810 N.am   88  LEU88      -0.1966
     42  CA        21.5880    9.7420   28.5190 C.3    88  LEU88       0.1728
     43  C         22.9840    9.1580   28.3800 C.2    88  LEU88       0.2616
     44  O         23.2320    8.0070   28.7450 O.2    88  LEU88      -0.2715
     45  CB        21.1180    9.6630   29.9740 C.3    88  LEU88       0.0311
     46  CG        21.9650   10.3380   31.0440 C.3    88  LEU88       0.0022
     47  CD1       21.9290   11.8620   30.8610 C.3    88  LEU88       0.0001
     48  CD2       21.4090    9.9500   32.4020 C.3    88  LEU88       0.0001
     49  N         23.9000    9.9720   27.8670 N.am   89  THR89      -0.1951
     50  CA        25.2730    9.5390   27.6350 C.3    89  THR89       0.1897
     51  C         26.0950    9.3740   28.9010 C.2    89  THR89       0.2313
     52  O         26.0610   10.2140   29.7940 O.2    89  THR89      -0.2863
     53  CB        25.9950   10.5220   26.7020 C.3    89  THR89       0.1794
     54  OG1       25.2270   10.6680   25.5000 O.3    89  THR89      -0.2208
     55  CG2       27.3980    9.9960   26.3250 C.3    89  THR89       0.0378
     56  N         29.5960   12.9460   34.8470 N.3    94  ARG94      -0.1245
     57  CA        28.3290   12.4320   35.3640 C.3    94  ARG94       0.1563
     58  C         28.5880   11.1960   36.2200 C.2    94  ARG94       0.2260
     59  O         27.9840   11.0280   37.2780 O.2    94  ARG94      -0.2867
     60  CB        27.3800   12.1000   34.2110 C.3    94  ARG94       0.0307
     61  CG        26.8680   13.3310   33.4700 C.3    94  ARG94       0.0489
     62  CD        26.1130   12.9260   32.2200 C.3    94  ARG94       0.2205
     63  NE        25.5070   14.0680   31.5430 N.pl3  94  ARG94      -0.0865
     64  CZ        24.9960   14.0200   30.3160 C.cat  94  ARG94       0.5346
     65  NH1       25.0300   12.8780   29.6270 N.pl3  94  ARG94       0.1354
     66  NH2       24.4290   15.1050   29.7900 N.pl3  94  ARG94       0.1354
     67  N         23.1380   20.8140   19.4260 N.3   136  LEU136     -0.1245
     68  CA        22.1330   21.2570   20.3900 C.3   136  LEU136      0.1561
     69  C         22.8620   22.2910   21.2510 C.2   136  LEU136      0.2260
     70  O         24.0920   22.2960   21.2940 O.2   136  LEU136     -0.2867
     71  CB        21.7050   20.0940   21.2850 C.3   136  LEU136      0.0270
     72  CG        20.7340   19.0950   20.6620 C.3   136  LEU136      0.0019
     73  CD1       20.7380   17.7720   21.4250 C.3   136  LEU136      0.0001
     74  CD2       19.3430   19.7310   20.6850 C.3   136  LEU136      0.0001
     75  N         22.7460   22.3900   24.4550 N.3   138  SER138     -0.1202
     76  CA        22.9170   21.7770   25.7750 C.3   138  SER138      0.2020
     77  C         23.1150   20.2810   25.5460 C.2   138  SER138      0.2619
     78  O         22.5890   19.7320   24.5820 O.2   138  SER138     -0.2717
     79  CB        21.6550   21.9960   26.6260 C.3   138  SER138      0.2103
     80  OG        21.8250   21.4880   27.9420 O.3   138  SER138     -0.2182
     81  N         23.8730   19.6160   26.4100 N.am  139  GLY139     -0.1942
     82  CA        24.0550   18.1880   26.2240 C.3   139  GLY139      0.2014
     83  C         25.4650   17.7500   25.8910 C.2   139  GLY139      0.2640
     84  O         26.3440   18.5750   25.6400 O.2   139  GLY139     -0.2714
     85  N         25.6660   16.4390   25.8680 N.am  140  SER140     -0.1935
     86  CA        26.9730   15.8510   25.5920 C.3   140  SER140      0.2055
     87  C         27.5860   16.1450   24.2320 C.2   140  SER140      0.2643
     88  O         28.8070   16.2400   24.1160 O.2   140  SER140     -0.2714
     89  CB        26.8940   14.3330   25.7880 C.3   140  SER140      0.2130
     90  OG        26.3060   14.0370   27.0360 O.3   140  SER140     -0.2179
     91  N         26.7580   16.2880   23.2070 N.am  141  THR141     -0.1950
     92  CA        27.2850   16.5580   21.8780 C.3   141  THR141      0.1897
     93  C         27.9550   17.9350   21.8560 C.2   141  THR141      0.2313
     94  O         29.0630   18.0970   21.3380 O.2   141  THR141     -0.2863
     95  CB        26.1870   16.4880   20.7940 C.3   141  THR141      0.1794
     96  OG1       25.6200   15.1640   20.7750 O.3   141  THR141     -0.2208
     97  CG2       26.7940   16.7750   19.4050 C.3   141  THR141      0.0378
     98  N         16.1980   18.5080   19.0150 N.3   172  THR172     -0.1218
     99  CA        16.5030   17.6660   17.8780 C.3   172  THR172      0.1862
    100  C         15.5870   18.0580   16.7210 C.2   172  THR172      0.2287
    101  O         16.0340   18.1780   15.5780 O.2   172  THR172     -0.2866
    102  CB        16.2990   16.1750   18.2250 C.3   172  THR172      0.1770
    103  OG1       17.2530   15.7850   19.2260 O.3   172  THR172     -0.2211
    104  CG2       16.4890   15.3130   16.9770 C.3   172  THR172      0.0375
    105  N         23.9100   19.1580   10.6170 N.3   188  TYR188     -0.1241
    106  CA        23.6400   18.9990   12.0330 C.3   188  TYR188      0.1605
    107  C         24.4800   17.8730   12.6380 C.2   188  TYR188      0.2264
    108  O         24.5250   16.7680   12.1070 O.2   188  TYR188     -0.2867
    109  CB        22.1280   18.7440   12.1970 C.3   188  TYR188      0.0534
    110  CG        21.6240   18.6150   13.6190 C.ar  188  TYR188     -0.0201
    111  CD1       22.0720   19.4720   14.6300 C.ar  188  TYR188     -0.0009
    112  CD2       20.7190   17.6080   13.9530 C.ar  188  TYR188     -0.0009
    113  CE1       21.6290   19.3160   15.9600 C.ar  188  TYR188      0.0417
    114  CE2       20.2720   17.4450   15.2630 C.ar  188  TYR188      0.0417
    115  CZ        20.7360   18.2970   16.2580 C.ar  188  TYR188      0.1957
    116  OH        20.3360   18.0770   17.5550 O.3   188  TYR188     -0.2866
    117  N         24.9240   15.3460   15.5460 N.3   190  LEU190     -0.1231
    118  CA        24.0740   14.7200   16.5580 C.3   190  LEU190      0.1693
    119  C         24.4680   13.2670   16.7750 C.2   190  LEU190      0.2591
    120  O         25.2390   12.6840   16.0040 O.2   190  LEU190     -0.2718
    121  CB        22.5980   14.7830   16.1190 C.3   190  LEU190      0.0284
    122  CG        22.1220   13.7840   15.0500 C.3   190  LEU190      0.0019
    123  CD1       20.6030   13.9190   14.8750 C.3   190  LEU190      0.0001
    124  CD2       22.8460   14.0410   13.7090 C.3   190  LEU190      0.0001
    125  N         23.9230   12.6710   17.8220 N.am  191  GLU191     -0.1979
    126  CA        24.2490   11.2910   18.1260 C.3   191  GLU191      0.1602
    127  C         23.7480   10.3520   17.0180 C.2   191  GLU191      0.2287
    128  O         22.6180   10.4680   16.5340 O.2   191  GLU191     -0.2864
    129  CB        23.7180   10.9720   19.5200 C.3   191  GLU191      0.0415
    130  CG        24.4690   11.8540   20.5270 C.3   191  GLU191      0.1163
    131  CD        24.0270   11.7130   21.9620 C.2   191  GLU191      0.3649
    132  OE1       22.8630   11.3780   22.2120 O.co2 191  GLU191     -0.2457
    133  OE2       24.8540   11.9720   22.8540 O.co2 191  GLU191     -0.2457
    134  N         20.2430    8.7990   16.6170 N.3   194  MET194     -0.1245
    135  CA        19.1670    9.7350   16.2760 C.3   194  MET194      0.1570
    136  C         19.2370   10.0210   14.7690 C.2   194  MET194      0.2261
    137  O         18.2110   10.1420   14.0940 O.2   194  MET194     -0.2867
    138  CB        19.3020   11.0450   17.0590 C.3   194  MET194      0.0387
    139  CG        18.1500   12.0220   16.8120 C.3   194  MET194      0.0595
    140  SD        16.5490   11.3320   17.3100 S.3   194  MET194     -0.1393
    141  CE        16.7240   11.4080   19.1130 C.3   194  MET194      0.0692
    142  N         24.7750    4.9790   26.0320 N.3   218  TYR218     -0.1241
    143  CA        23.7290    5.4940   26.9040 C.3   218  TYR218      0.1605
    144  C         23.6130    4.4930   28.0490 C.2   218  TYR218      0.2264
    145  O         23.6710    3.2790   27.8270 O.2   218  TYR218     -0.2867
    146  CB        22.3700    5.5250   26.2050 C.3   218  TYR218      0.0534
    147  CG        22.2440    6.4630   25.0260 C.ar  218  TYR218     -0.0201
    148  CD1       22.9410    7.6700   24.9860 C.ar  218  TYR218     -0.0009
    149  CD2       21.3610    6.1730   23.9820 C.ar  218  TYR218     -0.0009
    150  CE1       22.7570    8.5690   23.9380 C.ar  218  TYR218      0.0417
    151  CE2       21.1690    7.0610   22.9340 C.ar  218  TYR218      0.0417
    152  CZ        21.8650    8.2580   22.9150 C.ar  218  TYR218      0.1957
    153  OH        21.6480    9.1560   21.8830 O.3   218  TYR218     -0.2866
@<TRIPOS>BOND
     1   105   106    1
     2   106   109    1
     3   106   107    1
     4   108   107    2
     5   109   110    1
     6   110   112   ar
     7   110   111   ar
     8   124   122    1
     9   112   114   ar
    10   137   136    2
    11   111   113   ar
    12   136   135    1
    13   123   122    1
    14   122   121    1
    15   114   115   ar
    16   117   118    1
    17   101   100    2
    18   113   115   ar
    19   120   119    2
    20   121   118    1
    21   115   116    1
    22   135   134    1
    23   135   138    1
    24   128   127    2
    25   118   119    1
    26   100    99    1
    27   119   125   am
    28   139   138    1
    29   139   140    1
    30   104   102    1
    31   127   126    1
    32   140   141    1
    33   125   126    1
    34    99   102    1
    35    99    98    1
    36   126   129    1
    37   102   103    1
    38    97    95    1
    39    67    68    1
    40   129   130    1
    41    68    69    1
    42    68    71    1
    43   130   131    1
    44    72    74    1
    45    72    71    1
    46    72    73    1
    47    21    20    1
    48    96    95    1
    49    95    92    1
    50     8     7   ar
    51     9     7   ar
    52    69    70    2
    53    19    20   ar
    54    19    17   ar
    55    94    93    2
    56     7     6    1
    57    20    18   ar
    58    10    11    1
    59     3     4    2
    60     3     2    1
    61    93    92    1
    62    92    91    1
    63   153   152    1
    64   131   132   ar
    65   131   133   ar
    66    17    15   ar
    67     6     5    1
    68    18    16   ar
    69     2     5    1
    70     2     1    1
    71   152   151   ar
    72   152   150   ar
    73    15    16   ar
    74    15    14    1
    75   151   149   ar
    76    11    14    1
    77    11    12    1
    78    91    87   am
    79    12    13    2
    80   150   148   ar
    81   149   147   ar
    82    88    87    2
    83    87    86    1
    84    75    76    1
    85    38    39    1
    86    38    35    1
    87    78    77    2
    88    39    40    1
    89   148   147   ar
    90   147   146    1
    91    33    32    1
    92    54    53    1
    93    77    76    1
    94    77    81   am
    95    86    89    1
    96    86    85    1
    97    84    83    2
    98    76    79    1
    99    89    90    1
   100    35    36    1
   101    35    34    1
   102    85    83   am
   103    83    82    1
   104    40    34    1
   105    37    36    2
   106   142   143    1
   107    32    30   ar
   108    32    31   ar
   109   146   143    1
   110    82    81    1
   111    30    28   ar
   112    55    53    1
   113    36    41   am
   114    79    80    1
   115    53    50    1
   116   143   144    1
   117    31    29   ar
   118    28    27   ar
   119    50    49    1
   120    50    51    1
   121    41    42    1
   122   145   144    2
   123    49    43   am
   124    29    27   ar
   125    27    26    1
   126    43    42    1
   127    43    44    2
   128    42    45    1
   129    51    52    2
   130    26    23    1
   131    65    64    1
   132    66    64    1
   133    45    46    1
   134    22    23    1
   135    64    63    2
   136    23    24    1
   137    47    46    1
   138    46    48    1
   139    63    62    1
   140    24    25    2
   141    62    61    1
   142    61    60    1
   143    60    57    1
   144    56    57    1
   145    57    58    1
   146    58    59    2
