@<TRIPOS>MOLECULE
tmp/1sylA00.pdb
 87 82 0 0 0
SMALL
GASTEIGER

@<TRIPOS>ATOM
      1  N         45.0990   18.5750   43.4780 N.3    68  MET68      -0.1245
      2  CA        45.1080   17.5010   44.4620 C.3    68  MET68       0.1570
      3  C         43.8900   17.6370   45.3630 C.2    68  MET68       0.2261
      4  O         43.5190   18.7500   45.7890 O.2    68  MET68      -0.2867
      5  CB        46.3590   17.5370   45.2960 C.3    68  MET68       0.0387
      6  CG        47.6720   17.3290   44.5190 C.3    68  MET68       0.0595
      7  SD        49.0980   17.2750   45.7420 S.3    68  MET68      -0.1393
      8  CE        48.3470   16.6740   47.0360 C.3    68  MET68       0.0692
      9  N         45.7610   22.2810   52.8400 N.3    84  ASN84      -0.1240
     10  CA        45.4950   23.3750   51.9090 C.3    84  ASN84       0.1653
     11  C         44.1390   23.2190   51.1650 C.2    84  ASN84       0.2266
     12  O         43.7920   24.0360   50.2940 O.2    84  ASN84      -0.2867
     13  CB        46.6480   23.5820   50.9360 C.3    84  ASN84       0.1155
     14  CG        47.0410   22.3140   50.1700 C.2    84  ASN84       0.2627
     15  OD1       46.4450   21.2590   50.3230 O.2    84  ASN84      -0.2716
     16  ND2       48.1050   22.4280   49.3510 N.am   84  ASN84      -0.0877
     17  N         45.0670   21.1720   46.4660 N.3    87  GLY87      -0.1210
     18  CA        46.4130   21.5060   46.0720 C.3    87  GLY87       0.1956
     19  C         46.4890   21.7990   44.5710 C.2    87  GLY87       0.2612
     20  O         46.3180   20.9220   43.7500 O.2    87  GLY87      -0.2717
     21  N         46.7940   23.0330   44.2070 N.am   88  LEU88      -0.1965
     22  CA        46.8370   23.4050   42.8110 C.3    88  LEU88       0.1728
     23  C         48.2460   23.2760   42.3270 C.2    88  LEU88       0.2616
     24  O         49.1540   23.8810   42.9180 O.2    88  LEU88      -0.2715
     25  CB        46.3730   24.8430   42.6720 C.3    88  LEU88       0.0311
     26  CG        46.3520   25.4600   41.2600 C.3    88  LEU88       0.0022
     27  CD1       45.4200   24.7100   40.3640 C.3    88  LEU88       0.0001
     28  CD2       46.0090   26.9310   41.3610 C.3    88  LEU88       0.0001
     29  N         48.4590   22.5010   41.2670 N.am   89  ILE89      -0.1963
     30  CA        49.8090   22.3080   40.7360 C.3    89  ILE89       0.1727
     31  C         49.9490   23.0850   39.4200 C.2    89  ILE89       0.2616
     32  O         49.2450   22.7910   38.4480 O.2    89  ILE89      -0.2715
     33  CB        50.1070   20.8340   40.4740 C.3    89  ILE89       0.0290
     34  CG1       49.6750   19.9240   41.6350 C.3    89  ILE89       0.0022
     35  CG2       51.6010   20.6360   40.1470 C.3    89  ILE89       0.0023
     36  CD1       50.2020   20.3470   43.0050 C.3    89  ILE89       0.0001
     37  N         50.8490   24.0690   39.4010 N.am   90  ASN90      -0.1972
     38  CA        51.0190   24.9630   38.2230 C.3    90  ASN90       0.1688
     39  C         51.7900   24.2500   37.1290 C.2    90  ASN90       0.2292
     40  O         52.6510   23.4500   37.4360 O.2    90  ASN90      -0.2864
     41  CB        51.7740   26.2450   38.6210 C.3    90  ASN90       0.1181
     42  CG        51.0040   27.1020   39.6190 C.2    90  ASN90       0.2629
     43  OD1       49.8120   27.2760   39.4770 O.2    90  ASN90      -0.2716
     44  ND2       51.6870   27.6410   40.6290 N.am   90  ASN90      -0.0877
     45  N         55.5690   24.3170   37.5750 N.3    93  TYR93      -0.1241
     46  CA        56.1470   23.7430   38.7750 C.3    93  TYR93       0.1605
     47  C         56.8860   22.4600   38.4600 C.2    93  TYR93       0.2264
     48  O         56.3220   21.5380   37.8460 O.2    93  TYR93      -0.2867
     49  CB        55.0700   23.4240   39.7850 C.3    93  TYR93       0.0534
     50  CG        55.6270   22.8950   41.0730 C.ar   93  TYR93      -0.0201
     51  CD1       55.4950   21.5580   41.3920 C.ar   93  TYR93      -0.0009
     52  CD2       56.2370   23.7360   41.9950 C.ar   93  TYR93      -0.0009
     53  CE1       55.9750   21.0530   42.5740 C.ar   93  TYR93       0.0417
     54  CE2       56.7140   23.2360   43.2080 C.ar   93  TYR93       0.0417
     55  CZ        56.5620   21.8850   43.4960 C.ar   93  TYR93       0.1957
     56  OH        57.0300   21.3320   44.6980 O.3    93  TYR93      -0.2866
     57  N         59.3010   18.6830   43.7980 N.3    96  GLN96      -0.1231
     58  CA        58.6420   17.5270   44.3230 C.3    96  GLN96       0.1698
     59  C         57.1660   17.8020   44.6140 C.2    96  GLN96       0.2592
     60  O         56.8280   18.7930   45.1760 O.2    96  GLN96      -0.2718
     61  CB        59.3200   17.0330   45.5960 C.3    96  GLN96       0.0381
     62  CG        58.7020   15.6950   46.0480 C.3    96  GLN96       0.0905
     63  CD        59.4350   15.0050   47.2230 C.2    96  GLN96       0.2608
     64  OE1       59.1600   13.8530   47.5300 O.2    96  GLN96      -0.2717
     65  NE2       60.3520   15.7080   47.8600 N.am   96  GLN96      -0.0878
     66  N         56.2770   16.9310   44.1620 N.am   97  LEU97      -0.1966
     67  CA        54.8720   17.0210   44.5820 C.3    97  LEU97       0.1728
     68  C         54.7580   16.6270   46.0610 C.2    97  LEU97       0.2616
     69  O         55.2900   15.5780   46.4560 O.2    97  LEU97      -0.2715
     70  CB        54.0440   16.0700   43.7740 C.3    97  LEU97       0.0311
     71  CG        53.7380   16.4300   42.3370 C.3    97  LEU97       0.0022
     72  CD1       52.8000   15.3680   41.8030 C.3    97  LEU97       0.0001
     73  CD2       53.1070   17.8150   42.2490 C.3    97  LEU97       0.0001
     74  N         54.1330   17.4830   46.8590 N.am   98  MET98      -0.1977
     75  CA        54.0200   17.2850   48.3190 C.3    98  MET98       0.1605
     76  C         52.5450   17.2490   48.6690 C.2    98  MET98       0.2287
     77  O         51.7600   17.9070   47.9880 O.2    98  MET98      -0.2864
     78  CB        54.7110   18.4410   49.0770 C.3    98  MET98       0.0413
     79  CG        56.2150   18.7270   48.7190 C.3    98  MET98       0.0598
     80  SD        57.2880   17.3460   49.0210 S.3    98  MET98      -0.1393
     81  CE        57.3730   17.3980   50.8230 C.3    98  MET98       0.0692
     82  N         49.8820   18.1190   51.7060 N.3   100  SER100     -0.1217
     83  CA        49.5450   18.6120   53.0390 C.3   100  SER100      0.1889
     84  C         48.3810   17.7730   53.5870 C.2   100  SER100      0.2288
     85  O         47.2400   17.8960   53.1180 O.2   100  SER100     -0.2866
     86  CB        49.1400   20.0490   53.0010 C.3   100  SER100      0.2089
     87  OG        48.7570   20.4950   54.2970 O.3   100  SER100     -0.2183
@<TRIPOS>BOND
     1    39    40    2
     2    39    38    1
     3    45    46    1
     4    48    47    2
     5    38    41    1
     6    38    37    1
     7    32    31    2
     8    47    46    1
     9    41    42    1
    10    46    49    1
    11    37    31   am
    12    31    30    1
    13    43    42    2
    14    42    44   am
    15    49    50    1
    16    35    33    1
    17    27    26    1
    18    33    30    1
    19    33    34    1
    20    30    29    1
    21    50    51   ar
    22    50    52   ar
    23    26    28    1
    24    26    25    1
    25    29    23   am
    26    51    53   ar
    27    34    36    1
    28    72    71    1
    29    52    54   ar
    30    73    71    1
    31    23    22    1
    32    23    24    2
    33    71    70    1
    34    53    55   ar
    35    25    22    1
    36    22    21    1
    37    54    55   ar
    38     1     2    1
    39    55    56    1
    40    20    19    2
    41    70    67    1
    42    57    58    1
    43    66    67    1
    44    66    59   am
    45    21    19   am
    46    58    59    1
    47    58    61    1
    48     2     5    1
    49     2     3    1
    50     6     5    1
    51     6     7    1
    52    19    18    1
    53    67    68    1
    54    59    60    2
    55     3     4    2
    56    61    62    1
    57     7     8    1
    58    62    63    1
    59    68    69    2
    60    68    74   am
    61    18    17    1
    62    74    75    1
    63    63    64    2
    64    63    65   am
    65    77    76    2
    66    75    76    1
    67    75    78    1
    68    79    80    1
    69    79    78    1
    70    80    81    1
    71    16    14   am
    72    14    15    2
    73    14    13    1
    74    12    11    2
    75    13    10    1
    76    11    10    1
    77    82    83    1
    78    10     9    1
    79    86    83    1
    80    86    87    1
    81    83    84    1
    82    85    84    2
