@<TRIPOS>MOLECULE
tmp/1synA01.pdb
 204 198 0 0 0
SMALL
GASTEIGER

@<TRIPOS>ATOM
      1  N          9.5500   27.6800   25.8040 N.3    21  ARG21      -0.1231
      2  CA         8.9530   26.7980   24.7950 C.3    21  ARG21       0.1694
      3  C          7.9460   25.7320   25.2380 C.2    21  ARG21       0.2592
      4  O          7.0310   25.4290   24.4840 O.2    21  ARG21      -0.2718
      5  CB        10.0360   26.0680   24.0100 C.3    21  ARG21       0.0321
      6  CG        11.1370   25.4890   24.8620 C.3    21  ARG21       0.0489
      7  CD        11.8990   24.4630   24.0710 C.3    21  ARG21       0.2205
      8  NE        11.2090   23.2020   24.1530 N.pl3  21  ARG21      -0.0865
      9  CZ        11.2630   22.4100   25.2270 C.cat  21  ARG21       0.5346
     10  NH1       11.9750   22.6850   26.3110 N.pl3  21  ARG21       0.1354
     11  NH2       10.5880   21.2760   25.2260 N.pl3  21  ARG21       0.1354
     12  N          8.0220   25.1910   26.4630 N.am   22  THR22      -0.1953
     13  CA         7.0580   24.1770   26.9570 C.3    22  THR22       0.1897
     14  C          5.7370   24.7670   27.5170 C.2    22  THR22       0.2313
     15  O          4.9750   24.1140   28.2330 O.2    22  THR22      -0.2863
     16  CB         7.6960   23.2810   28.0870 C.3    22  THR22       0.1794
     17  OG1        7.5450   23.9220   29.3530 O.3    22  THR22      -0.2208
     18  CG2        9.1970   23.1270   27.9130 C.3    22  THR22       0.0378
     19  N         17.9920    9.1850   43.2360 N.3    51  HIS51      -0.1241
     20  CA        18.3320    7.7910   42.9850 C.3    51  HIS51       0.1621
     21  C         19.5650    7.4690   42.1380 C.2    51  HIS51       0.2264
     22  O         19.4710    7.4350   40.9240 O.2    51  HIS51      -0.2867
     23  CB        17.0780    7.1240   42.3990 C.3    51  HIS51       0.0745
     24  CG        16.0130    6.9200   43.4720 C.ar   51  HIS51       0.0817
     25  ND1       16.0590    6.1480   44.5600 N.ar   51  HIS51      -0.2268
     26  CD2       14.8010    7.5680   43.4960 C.ar   51  HIS51       0.1154
     27  CE1       14.9500    6.2970   45.2380 C.ar   51  HIS51       0.1986
     28  NE2       14.2080    7.1540   44.5860 N.ar   51  HIS51      -0.2212
     29  N         19.9830    5.6720   38.3420 N.3    54  SER54      -0.1202
     30  CA        19.6270    6.4190   37.1480 C.3    54  SER54       0.2020
     31  C         20.7310    7.3300   36.6280 C.2    54  SER54       0.2618
     32  O         20.9690    7.4420   35.4210 O.2    54  SER54      -0.2717
     33  CB        18.4260    7.2210   37.4790 C.3    54  SER54       0.2103
     34  OG        18.8080    8.0860   38.5410 O.3    54  SER54      -0.2182
     35  N         21.4630    7.9500   37.5600 N.am   55  ILE55      -0.1979
     36  CA        22.5910    8.8380   37.2500 C.3    55  ILE55       0.1595
     37  C         23.7280    8.0440   36.5900 C.2    55  ILE55       0.2287
     38  O         24.2420    8.3950   35.5140 O.2    55  ILE55      -0.2864
     39  CB        23.0460    9.4910   38.5440 C.3    55  ILE55       0.0276
     40  CG1       21.9260   10.2640   39.1790 C.3    55  ILE55       0.0022
     41  CG2       24.2040   10.4100   38.2460 C.3    55  ILE55       0.0022
     42  CD1       22.2110   10.7420   40.6100 C.3    55  ILE55       0.0001
     43  N         22.5580    6.4520   32.8740 N.3    58  GLU58      -0.1245
     44  CA        22.6810    7.5060   31.8640 C.3    58  GLU58       0.1567
     45  C         24.1700    7.8200   31.5850 C.2    58  GLU58       0.2260
     46  O         24.5900    7.9070   30.4320 O.2    58  GLU58      -0.2867
     47  CB        21.9330    8.7360   32.3800 C.3    58  GLU58       0.0388
     48  CG        21.5580    9.7090   31.2640 C.3    58  GLU58       0.1160
     49  CD        21.1380   11.1100   31.7090 C.2    58  GLU58       0.3649
     50  OE1       21.5870   11.5870   32.7550 O.co2  58  GLU58      -0.2457
     51  OE2       20.3560   11.7360   30.9930 O.co2  58  GLU58      -0.2457
     52  N         15.6000    0.3640   33.8940 N.3    76  ASN76      -0.1225
     53  CA        14.5210    1.1880   34.4300 C.3    76  ASN76       0.1785
     54  C         14.6020    2.7260   34.4290 C.2    76  ASN76       0.2597
     55  O         13.9950    3.4370   35.2320 O.2    76  ASN76      -0.2718
     56  CB        14.2560    0.6490   35.8420 C.3    76  ASN76       0.1169
     57  CG        13.6810   -0.7680   35.7800 C.2    76  ASN76       0.2627
     58  OD1       12.4840   -1.0010   35.8590 O.2    76  ASN76      -0.2716
     59  ND2       14.4100   -1.8470   35.6020 N.am   76  ASN76      -0.0877
     60  N         15.3770    3.2950   33.5020 N.am   77  VAL77      -0.1966
     61  CA        15.4380    4.7480   33.3090 C.3    77  VAL77       0.1727
     62  C         14.4120    5.2160   32.2550 C.2    77  VAL77       0.2617
     63  O         14.3970    4.8300   31.0780 O.2    77  VAL77      -0.2715
     64  CB        16.8800    5.1410   32.9030 C.3    77  VAL77       0.0290
     65  CG1       17.0180    6.6520   32.8000 C.3    77  VAL77       0.0023
     66  CG2       17.8600    4.6480   33.9590 C.3    77  VAL77       0.0023
     67  N         13.4840    6.0570   32.6930 N.am   78  THR78      -0.1937
     68  CA        12.3770    6.5540   31.8610 C.3    78  THR78       0.2028
     69  C         12.3720    7.9990   31.3590 C.2    78  THR78       0.2642
     70  O         11.6630    8.3170   30.3920 O.2    78  THR78      -0.2714
     71  CB        11.0640    6.3610   32.6010 C.3    78  THR78       0.1808
     72  OG1       11.2350    7.1650   33.7620 O.3    78  THR78      -0.2208
     73  CG2       10.7150    4.9210   32.9120 C.3    78  THR78       0.0379
     74  N         13.1310    8.9160   31.9820 N.am   79  ILE79      -0.1963
     75  CA        13.1590   10.3410   31.5870 C.3    79  ILE79       0.1727
     76  C         13.3670   10.7260   30.1050 C.2    79  ILE79       0.2616
     77  O         12.8770   11.7530   29.6070 O.2    79  ILE79      -0.2715
     78  CB        14.2190   11.0240   32.5180 C.3    79  ILE79       0.0290
     79  CG1       14.1790   12.5590   32.3960 C.3    79  ILE79       0.0022
     80  CG2       15.5920   10.4940   32.1640 C.3    79  ILE79       0.0023
     81  CD1       12.9190   13.2930   32.9010 C.3    79  ILE79       0.0001
     82  N         14.0490    9.8850   29.3360 N.am   80  TRP80      -0.1974
     83  CA        14.2090   10.1650   27.9200 C.3    80  TRP80       0.1640
     84  C         13.0710    9.7580   26.9930 C.2    80  TRP80       0.2290
     85  O         12.9980   10.1730   25.8330 O.2    80  TRP80      -0.2864
     86  CB        15.4790    9.5260   27.4780 C.3    80  TRP80       0.0576
     87  CG        16.6590   10.3460   27.9820 C.ar   80  TRP80       0.0006
     88  CD1       17.5230    9.8430   28.9140 C.ar   80  TRP80       0.0946
     89  CD2       17.0070   11.6050   27.5610 C.ar   80  TRP80       0.0152
     90  NE1       18.4180   10.7700   29.0780 N.ar   80  TRP80      -0.2442
     91  CE2       18.1650   11.8280   28.3040 C.ar   80  TRP80       0.0810
     92  CE3       16.5330   12.5730   26.6720 C.ar   80  TRP80       0.0012
     93  CZ2       18.8720   13.0160   28.1620 C.ar   80  TRP80       0.0191
     94  CZ3       17.2360   13.7650   26.5370 C.ar   80  TRP80       0.0001
     95  CH2       18.3970   13.9840   27.2740 C.ar   80  TRP80       0.0015
     96  N         10.9180   12.1900   24.3040 N.3    83  TRP83      -0.1241
     97  CA        11.7210   12.7300   23.2050 C.3    83  TRP83       0.1605
     98  C         12.1400   11.7090   22.1610 C.2    83  TRP83       0.2264
     99  O         12.6130   12.0280   21.0630 O.2    83  TRP83      -0.2867
    100  CB        12.9470   13.3840   23.7920 C.3    83  TRP83       0.0550
    101  CG        12.5230   14.3380   24.8870 C.ar   83  TRP83       0.0003
    102  CD1       12.6020   13.9620   26.1990 C.ar   83  TRP83       0.0946
    103  CD2       11.9950   15.5870   24.6980 C.ar   83  TRP83       0.0152
    104  NE1       12.1100   14.9740   26.8530 N.ar   83  TRP83      -0.2442
    105  CE2       11.7430   15.9610   26.0190 C.ar   83  TRP83       0.0810
    106  CE3       11.6880   16.4460   23.6370 C.ar   83  TRP83       0.0012
    107  CZ2       11.1800   17.2080   26.3010 C.ar   83  TRP83       0.0191
    108  CZ3       11.1230   17.6910   23.9110 C.ar   83  TRP83       0.0001
    109  CH2       10.8720   18.0640   25.2330 C.ar   83  TRP83       0.0015
    110  N         16.6040   16.7890   21.5940 N.3   143  LEU143     -0.1245
    111  CA        16.7090   17.9060   22.5130 C.3   143  LEU143      0.1561
    112  C         18.0850   18.5520   22.2750 C.2   143  LEU143      0.2260
    113  O         19.0840   17.8220   22.2430 O.2   143  LEU143     -0.2867
    114  CB        16.6300   17.4230   23.9580 C.3   143  LEU143      0.0270
    115  CG        16.1140   18.4100   24.9880 C.3   143  LEU143      0.0019
    116  CD1       14.6110   18.4370   24.8230 C.3   143  LEU143      0.0001
    117  CD2       16.3830   17.9900   26.4150 C.3   143  LEU143      0.0001
    118  N         23.6290   20.4870   29.1320 N.3   147  HIS147     -0.1241
    119  CA        25.0010   20.4030   29.6170 C.3   147  HIS147      0.1621
    120  C         25.8650   20.1560   28.3830 C.2   147  HIS147      0.2264
    121  O         26.1260   19.0450   27.9300 O.2   147  HIS147     -0.2867
    122  CB        25.1230   19.2660   30.6750 C.3   147  HIS147      0.0745
    123  CG        24.6560   17.8250   30.4370 C.ar  147  HIS147      0.0817
    124  ND1       25.3830   16.7320   30.1830 N.ar  147  HIS147     -0.2268
    125  CD2       23.3520   17.4030   30.5680 C.ar  147  HIS147      0.1154
    126  CE1       24.5920   15.6920   30.1640 C.ar  147  HIS147      0.1986
    127  NE2       23.3820   16.1170   30.3930 N.ar  147  HIS147     -0.2212
    128  N         17.1010   23.4100   34.7410 N.3   169  ASP169     -0.1239
    129  CA        15.9200   23.1940   35.5790 C.3   169  ASP169      0.1674
    130  C         16.4330   22.8990   36.9920 C.2   169  ASP169      0.2266
    131  O         16.6740   21.7410   37.3420 O.2   169  ASP169     -0.2867
    132  CB        15.1780   22.0080   34.9980 C.3   169  ASP169      0.1410
    133  CG        13.8670   21.5620   35.6310 C.2   169  ASP169      0.3668
    134  OD1       13.6160   21.7270   36.8290 O.co2 169  ASP169     -0.2456
    135  OD2       13.0890   20.9900   34.8830 O.co2 169  ASP169     -0.2456
    136  N         14.5600   19.8950   39.1960 N.3   172  LEU172     -0.1231
    137  CA        14.4880   18.5310   38.6730 C.3   172  LEU172      0.1693
    138  C         15.7290   17.9980   37.9800 C.2   172  LEU172      0.2592
    139  O         16.2020   16.9170   38.2980 O.2   172  LEU172     -0.2718
    140  CB        13.3190   18.4910   37.7280 C.3   172  LEU172      0.0284
    141  CG        12.2980   17.3680   37.7750 C.3   172  LEU172      0.0019
    142  CD1       11.8660   17.0430   39.2050 C.3   172  LEU172      0.0001
    143  CD2       11.1260   17.8160   36.9160 C.3   172  LEU172      0.0001
    144  N         16.3510   18.7750   37.0920 N.am  173  GLY173     -0.1957
    145  CA        17.4890   18.3110   36.3270 C.3   173  GLY173      0.1869
    146  C         18.8150   18.3740   37.0670 C.2   173  GLY173      0.2309
    147  O         19.5800   17.3950   37.1010 O.2   173  GLY173     -0.2863
    148  N         20.6610   15.6180   39.3220 N.3   176  PHE176     -0.1227
    149  CA        21.2050   14.5670   38.4910 C.3   176  PHE176      0.1736
    150  C         22.3670   15.0570   37.6350 C.2   176  PHE176      0.2595
    151  O         23.3440   14.3380   37.4700 O.2   176  PHE176     -0.2718
    152  CB        20.1200   14.0200   37.5910 C.3   176  PHE176      0.0547
    153  CG        19.0240   13.3240   38.3710 C.ar  176  PHE176     -0.0202
    154  CD1       17.9380   14.0610   38.8620 C.ar  176  PHE176     -0.0042
    155  CD2       19.1060   11.9510   38.6140 C.ar  176  PHE176     -0.0042
    156  CE1       16.9460   13.4110   39.5990 C.ar  176  PHE176     -0.0003
    157  CE2       18.1120   11.3070   39.3510 C.ar  176  PHE176     -0.0003
    158  CZ        17.0300   12.0360   39.8440 C.ar  176  PHE176     -0.0000
    159  N         22.3470   16.2870   37.1030 N.am  177  ASN177     -0.1974
    160  CA        23.4780   16.7680   36.2850 C.3   177  ASN177      0.1688
    161  C         24.7590   16.9660   37.0590 C.2   177  ASN177      0.2292
    162  O         25.8230   16.6660   36.5510 O.2   177  ASN177     -0.2864
    163  CB        23.1690   18.0850   35.6200 C.3   177  ASN177      0.1181
    164  CG        21.9400   17.9550   34.7340 C.2   177  ASN177      0.2629
    165  OD1       21.1350   18.8620   34.6340 O.2   177  ASN177     -0.2716
    166  ND2       21.6610   16.8760   34.0460 N.am  177  ASN177     -0.0877
    167  N         10.6900   26.2790   37.3880 N.3   209  TYR209     -0.1241
    168  CA         9.3930   26.3640   36.7200 C.3   209  TYR209      0.1605
    169  C          8.2730   26.7860   37.6810 C.2   209  TYR209      0.2264
    170  O          8.2960   26.4840   38.8840 O.2   209  TYR209     -0.2867
    171  CB         9.0400   24.9990   36.0930 C.3   209  TYR209      0.0534
    172  CG         9.7710   24.7180   34.7890 C.ar  209  TYR209     -0.0201
    173  CD1        9.2820   25.2560   33.6100 C.ar  209  TYR209     -0.0009
    174  CD2       10.9540   23.9730   34.7500 C.ar  209  TYR209     -0.0009
    175  CE1        9.9440   25.0720   32.4000 C.ar  209  TYR209      0.0417
    176  CE2       11.6340   23.7790   33.5390 C.ar  209  TYR209      0.0417
    177  CZ        11.1210   24.3380   32.3660 C.ar  209  TYR209      0.1957
    178  OH        11.7760   24.2310   31.1540 O.3   209  TYR209     -0.2866
    179  N          8.1070   14.9880   44.8690 N.3   259  LYS259     -0.1231
    180  CA         7.8090   14.9200   43.4420 C.3   259  LYS259      0.1693
    181  C          7.3750   16.2450   42.8450 C.2   259  LYS259      0.2591
    182  O          7.0410   17.1750   43.5690 O.2   259  LYS259     -0.2718
    183  CB         6.7500   13.8500   43.2080 C.3   259  LYS259      0.0285
    184  CG         7.3660   12.4850   43.5330 C.3   259  LYS259      0.0035
    185  CD         8.5270   12.1610   42.5680 C.3   259  LYS259      0.0206
    186  CE         9.6330   11.2810   43.1840 C.3   259  LYS259      0.1093
    187  NZ        10.5200   12.0200   44.0790 N.3   259  LYS259     -0.1314
    188  N          7.4630   16.3600   41.5190 N.am  260  ALA260     -0.1980
    189  CA         7.1210   17.5800   40.7730 C.3   260  ALA260      0.1597
    190  C          6.9670   17.3390   39.2680 C.2   260  ALA260      0.2287
    191  O          7.6830   16.4990   38.7200 O.2   260  ALA260     -0.2864
    192  CB         8.1960   18.6250   40.9370 C.3   260  ALA260      0.0319
    193  N          7.3810   17.3060   35.1480 N.3   262  VAL262     -0.1231
    194  CA         8.3860   17.6750   34.1560 C.3   262  VAL262      0.1692
    195  C          7.7130   18.5750   33.1260 C.2   262  VAL262      0.2591
    196  O          6.6840   18.1900   32.5750 O.2   262  VAL262     -0.2718
    197  CB         8.9410   16.4480   33.3930 C.3   262  VAL262      0.0266
    198  CG1       10.0330   16.8510   32.4080 C.3   262  VAL262      0.0020
    199  CG2        9.5290   15.4710   34.3760 C.3   262  VAL262      0.0020
    200  N          8.1430   19.8040   32.9010 N.am  263  ALA263     -0.1980
    201  CA         7.6400   20.5540   31.7460 C.3   263  ALA263      0.1597
    202  C          8.1240   19.9400   30.4110 C.2   263  ALA263      0.2287
    203  O          9.3030   19.6190   30.2990 O.2   263  ALA263     -0.2864
    204  CB         8.1190   21.9840   31.8690 C.3   263  ALA263      0.0319
@<TRIPOS>BOND
     1    99    98    2
     2   110   111    1
     3    98    97    1
     4   113   112    2
     5   112   111    1
     6   111   114    1
     7    97   100    1
     8    97    96    1
     9   106   108   ar
    10   106   103   ar
    11   100   101    1
    12   108   109   ar
    13   114   115    1
    14     5     2    1
    15     5     6    1
    16     7     8    1
    17     7     6    1
    18     8     9    2
    19     4     3    2
    20   103   101   ar
    21   103   105   ar
    22     2     3    1
    23     2     1    1
    24   116   115    1
    25   101   102   ar
    26   115   117    1
    27    11     9    1
    28     9    10    1
    29   109   107   ar
    30     3    12   am
    31    85    84    2
    32   105   107   ar
    33   105   104   ar
    34   102   104   ar
    35    12    13    1
    36    94    92   ar
    37    94    95   ar
    38    92    89   ar
    39    13    14    1
    40    13    16    1
    41    84    83    1
    42    95    93   ar
    43    86    83    1
    44    86    87    1
    45    14    15    2
    46    89    87   ar
    47    89    91   ar
    48    18    16    1
    49    83    82    1
    50   121   120    2
    51    87    88   ar
    52    16    17    1
    53    93    91   ar
    54    91    90   ar
    55   120   119    1
    56    88    90   ar
    57   118   119    1
    58    82    76   am
    59    77    76    2
    60   119   122    1
    61    76    75    1
    62   126   124   ar
    63   126   127   ar
    64   124   123   ar
    65   203   202    2
    66    70    69    2
    67   127   125   ar
    68   202   201    1
    69    46    45    2
    70   123   125   ar
    71   123   122    1
    72    51    49   ar
    73    63    62    2
    74   178   177    1
    75    48    49    1
    76    48    47    1
    77    69    68    1
    78    69    74   am
    79    45    44    1
    80    75    74    1
    81    75    78    1
    82    49    50   ar
    83   201   204    1
    84   201   200    1
    85    68    71    1
    86    68    67    1
    87    44    47    1
    88    44    43    1
    89    80    78    1
    90    62    67   am
    91    62    61    1
    92   177   175   ar
    93   177   176   ar
    94    79    78    1
    95    79    81    1
    96   175   173   ar
    97   198   197    1
    98   196   195    2
    99    71    73    1
   100    71    72    1
   101    65    64    1
   102   200   195   am
   103    64    61    1
   104    64    66    1
   105   195   194    1
   106    61    60    1
   107   197   194    1
   108   197   199    1
   109    60    54   am
   110   176   174   ar
   111   173   172   ar
   112    52    53    1
   113   166   164   am
   114   194   193    1
   115    54    53    1
   116    54    55    2
   117    53    56    1
   118   165   164    2
   119   164   163    1
   120   128   129    1
   121   174   172   ar
   122   172   171    1
   123   135   133   ar
   124   132   129    1
   125   132   133    1
   126    32    31    2
   127    38    37    2
   128   129   130    1
   129    59    57   am
   130   163   160    1
   131   133   134   ar
   132    57    56    1
   133    57    58    2
   134   171   168    1
   135   160   161    1
   136   160   159    1
   137   145   146    1
   138   145   144    1
   139   162   161    2
   140    37    36    1
   141    31    30    1
   142    31    35   am
   143   168   167    1
   144   168   169    1
   145   143   141    1
   146   130   131    2
   147   146   147    2
   148   144   138   am
   149   159   150   am
   150    30    33    1
   151    30    29    1
   152    36    35    1
   153    36    39    1
   154   151   150    2
   155    33    34    1
   156   152   153    1
   157   152   149    1
   158   150   149    1
   159   169   170    2
   160   140   141    1
   161   140   137    1
   162   141   142    1
   163   138   139    2
   164   138   137    1
   165    41    39    1
   166   153   155   ar
   167   153   154   ar
   168   149   148    1
   169    39    40    1
   170   155   157   ar
   171   137   136    1
   172   191   190    2
   173   154   156   ar
   174    40    42    1
   175   190   189    1
   176   157   158   ar
   177   156   158   ar
   178   189   192    1
   179   189   188    1
   180    22    21    2
   181   188   181   am
   182    21    20    1
   183    23    20    1
   184    23    24    1
   185   185   186    1
   186   185   184    1
   187   181   180    1
   188   181   182    2
   189    20    19    1
   190   186   187    1
   191   183   180    1
   192   183   184    1
   193   180   179    1
   194    24    26   ar
   195    24    25   ar
   196    26    28   ar
   197    25    27   ar
   198    28    27   ar
