@<TRIPOS>MOLECULE
tmp/1syoB02.pdb
 112 105 0 0 0
SMALL
GASTEIGER

@<TRIPOS>ATOM
      1  N         24.3180  -25.0800   28.1910 N.3   300  TYR300     -0.1241
      2  CA        24.8740  -26.1440   27.3660 C.3   300  TYR300      0.1605
      3  C         24.3000  -27.4980   27.7000 C.2   300  TYR300      0.2264
      4  O         23.5350  -27.6550   28.6530 O.2   300  TYR300     -0.2867
      5  CB        26.3960  -26.2260   27.5250 C.3   300  TYR300      0.0534
      6  CG        27.1500  -24.9570   27.2220 C.ar  300  TYR300     -0.0201
      7  CD1       27.2200  -23.9280   28.1560 C.ar  300  TYR300     -0.0009
      8  CD2       27.8160  -24.7920   26.0090 C.ar  300  TYR300     -0.0009
      9  CE1       27.9370  -22.7670   27.8970 C.ar  300  TYR300      0.0417
     10  CE2       28.5380  -23.6280   25.7380 C.ar  300  TYR300      0.0417
     11  CZ        28.5920  -22.6230   26.6900 C.ar  300  TYR300      0.1957
     12  OH        29.3000  -21.4730   26.4350 O.3   300  TYR300     -0.2866
     13  N         30.6890  -30.7090   24.7350 N.3   324  GLN324     -0.1245
     14  CA        29.7900  -29.6220   25.1250 C.3   324  GLN324      0.1566
     15  C         29.0780  -29.0050   23.9170 C.2   324  GLN324      0.2260
     16  O         29.6870  -28.7690   22.8710 O.2   324  GLN324     -0.2867
     17  CB        30.5780  -28.5310   25.8540 C.3   324  GLN324      0.0367
     18  CG        29.7330  -27.5970   26.7040 C.3   324  GLN324      0.0905
     19  CD        30.4370  -26.2850   27.0080 C.2   324  GLN324      0.2608
     20  OE1       30.3860  -25.7870   28.1290 O.2   324  GLN324     -0.2717
     21  NE2       31.0880  -25.7130   25.9990 N.am  324  GLN324     -0.0878
     22  N         26.4080  -25.7990   22.8650 N.3   326  LYS326     -0.1245
     23  CA        25.7310  -24.5490   23.2090 C.3   326  LYS326      0.1561
     24  C         24.2650  -24.6830   22.8210 C.2   326  LYS326      0.2260
     25  O         23.9570  -25.0980   21.7100 O.2   326  LYS326     -0.2867
     26  CB        26.3720  -23.3840   22.4480 C.3   326  LYS326      0.0271
     27  CG        26.1810  -22.0250   23.0930 C.3   326  LYS326      0.0035
     28  CD        27.0000  -20.9700   22.3860 C.3   326  LYS326      0.0206
     29  CE        27.0980  -19.7010   23.2220 C.3   326  LYS326      0.1093
     30  NZ        28.0470  -18.6970   22.6460 N.3   326  LYS326     -0.1314
     31  N         27.9150  -24.7720   17.9410 N.3   332  GLN332     -0.1245
     32  CA        29.0730  -24.4500   18.7740 C.3   332  GLN332      0.1566
     33  C         29.3610  -25.6810   19.6250 C.2   332  GLN332      0.2260
     34  O         28.6970  -25.9330   20.6350 O.2   332  GLN332     -0.2867
     35  CB        28.8100  -23.2350   19.6770 C.3   332  GLN332      0.0367
     36  CG        30.0750  -22.7570   20.4070 C.3   332  GLN332      0.0905
     37  CD        29.9250  -21.3980   21.0810 C.2   332  GLN332      0.2608
     38  OE1       29.5820  -20.4070   20.4350 O.2   332  GLN332     -0.2717
     39  NE2       30.1940  -21.3470   22.3840 N.am  332  GLN332     -0.0878
     40  N         32.3380  -27.9770   21.6740 N.3   334  LYS334     -0.1245
     41  CA        33.6450  -27.9850   22.3200 C.3   334  LYS334      0.1561
     42  C         33.9490  -29.3210   22.9860 C.2   334  LYS334      0.2260
     43  O         33.1240  -29.8640   23.7180 O.2   334  LYS334     -0.2867
     44  CB        33.7250  -26.8610   23.3620 C.3   334  LYS334      0.0271
     45  CG        33.6540  -25.4490   22.7770 C.3   334  LYS334      0.0035
     46  CD        34.8040  -25.1880   21.8150 C.3   334  LYS334      0.0206
     47  CE        34.6940  -23.8160   21.1590 C.3   334  LYS334      0.1093
     48  NZ        34.6330  -22.7060   22.1440 N.3   334  LYS334     -0.1314
     49  N         41.1000  -23.5300   26.0390 N.3   361  CYS361     -0.1221
     50  CA        40.3060  -22.3410   26.2720 C.3   361  CYS361      0.1808
     51  C         41.3100  -21.1850   26.0710 C.2   361  CYS361      0.2602
     52  O         42.5200  -21.4150   26.0270 O.2   361  CYS361     -0.2717
     53  CB        39.7240  -22.3600   27.6920 C.3   361  CYS361      0.0970
     54  SG        38.1910  -23.3460   27.8110 S.3   361  CYS361     -0.0800
     55  N         40.8130  -19.9620   25.9270 N.am  362  SER362     -0.1938
     56  CA        41.6740  -18.8030   25.6870 C.3   362  SER362      0.2055
     57  C         42.8110  -18.6490   26.6980 C.2   362  SER362      0.2643
     58  O         43.8060  -17.9760   26.4180 O.2   362  SER362     -0.2714
     59  CB        40.8390  -17.5110   25.6480 C.3   362  SER362      0.2130
     60  OG        40.3950  -17.1180   26.9440 O.3   362  SER362     -0.2179
     61  N         42.6630  -19.2770   27.8610 N.am  363  SER363     -0.1949
     62  CA        43.6740  -19.2120   28.9180 C.3   363  SER363      0.1924
     63  C         44.8730  -20.0700   28.5580 C.2   363  SER363      0.2314
     64  O         45.9950  -19.8420   29.0390 O.2   363  SER363     -0.2863
     65  CB        43.0910  -19.7250   30.2290 C.3   363  SER363      0.2116
     66  OG        42.7650  -21.1050   30.1200 O.3   363  SER363     -0.2180
     67  N         40.4750  -28.0980   27.9000 N.3   367  ARG367     -0.1245
     68  CA        39.3020  -28.4680   28.6710 C.3   367  ARG367      0.1563
     69  C         39.4170  -29.9100   29.1830 C.2   367  ARG367      0.2260
     70  O         39.9110  -30.7930   28.4890 O.2   367  ARG367     -0.2867
     71  CB        38.0320  -28.3260   27.8180 C.3   367  ARG367      0.0307
     72  CG        37.6080  -26.8920   27.4800 C.3   367  ARG367      0.0489
     73  CD        36.2830  -26.9120   26.7130 C.3   367  ARG367      0.2205
     74  NE        35.7410  -25.5870   26.4050 N.pl3 367  ARG367     -0.0865
     75  CZ        36.2710  -24.7430   25.5200 C.cat 367  ARG367      0.5346
     76  NH1       37.3640  -25.0780   24.8510 N.pl3 367  ARG367      0.1354
     77  NH2       35.6960  -23.5660   25.2910 N.pl3 367  ARG367      0.1354
     78  N         31.1550  -25.6690   36.3200 N.3   392  GLU392     -0.1245
     79  CA        32.3860  -25.4030   35.6200 C.3   392  GLU392      0.1567
     80  C         33.2330  -24.4100   36.4060 C.2   392  GLU392      0.2260
     81  O         32.7140  -23.5460   37.1110 O.2   392  GLU392     -0.2867
     82  CB        32.0990  -24.7830   34.2430 C.3   392  GLU392      0.0388
     83  CG        33.3430  -24.6230   33.3720 C.3   392  GLU392      0.1160
     84  CD        33.1360  -23.7190   32.1400 C.2   392  GLU392      0.3649
     85  OE1       32.0120  -23.6590   31.6140 O.co2 392  GLU392     -0.2457
     86  OE2       34.1090  -23.0740   31.6960 O.co2 392  GLU392     -0.2457
     87  N         36.6500  -22.3370   35.2050 N.3   394  ASP394     -0.1225
     88  CA        37.6840  -22.0450   34.2180 C.3   394  ASP394      0.1805
     89  C         38.0040  -23.2120   33.2890 C.2   394  ASP394      0.2598
     90  O         39.1590  -23.5990   33.1590 O.2   394  ASP394     -0.2718
     91  CB        38.9750  -21.6130   34.9030 C.3   394  ASP394      0.1424
     92  CG        38.7540  -20.5310   35.9240 C.2   394  ASP394      0.3668
     93  OD1       37.9680  -19.6010   35.6390 O.co2 394  ASP394     -0.2456
     94  OD2       39.3720  -20.6140   37.0100 O.co2 394  ASP394     -0.2456
     95  N         36.9750  -23.7800   32.6730 N.am  395  CYS395     -0.1970
     96  CA        37.1200  -24.8660   31.7070 C.3   395  CYS395      0.1712
     97  C         37.3650  -26.2910   32.2190 C.2   395  CYS395      0.2296
     98  O         37.7860  -27.1790   31.4760 O.2   395  CYS395     -0.2864
     99  CB        38.1460  -24.4450   30.6470 C.3   395  CYS395      0.0983
    100  SG        37.5110  -23.0160   29.6970 S.3   395  CYS395     -0.0798
    101  N         35.1390  -29.1300   33.8170 N.3   397  TYR397     -0.1241
    102  CA        33.7280  -29.4610   34.0000 C.3   397  TYR397      0.1605
    103  C         33.5470  -30.5740   35.0400 C.2   397  TYR397      0.2264
    104  O         34.1920  -31.6310   34.9770 O.2   397  TYR397     -0.2867
    105  CB        33.1310  -29.8650   32.6450 C.3   397  TYR397      0.0534
    106  CG        33.3820  -28.8180   31.5840 C.ar  397  TYR397     -0.0201
    107  CD1       34.5420  -28.8450   30.8140 C.ar  397  TYR397     -0.0009
    108  CD2       32.5070  -27.7380   31.4200 C.ar  397  TYR397     -0.0009
    109  CE1       34.8310  -27.8270   29.9170 C.ar  397  TYR397      0.0417
    110  CE2       32.7880  -26.7110   30.5250 C.ar  397  TYR397      0.0417
    111  CZ        33.9490  -26.7550   29.7810 C.ar  397  TYR397      0.1957
    112  OH        34.2730  -25.7150   28.9330 O.3   397  TYR397     -0.2866
@<TRIPOS>BOND
     1    31    32    1
     2    32    33    1
     3    32    35    1
     4    33    34    2
     5    35    36    1
     6    36    37    1
     7    38    37    2
     8    37    39   am
     9    47    46    1
    10    47    48    1
    11    40    41    1
    12    25    24    2
    13    46    45    1
    14    41    42    1
    15    41    44    1
    16    28    27    1
    17    28    29    1
    18    26    27    1
    19    26    23    1
    20    30    29    1
    21    45    44    1
    22    24    23    1
    23    22    23    1
    24    16    15    2
    25    42    43    2
    26    15    14    1
    27    13    14    1
    28    76    75    1
    29    14    17    1
    30    77    75    1
    31    75    74    2
    32    59    56    1
    33    59    60    1
    34    56    55    1
    35    56    57    1
    36    10     8   ar
    37    10    11   ar
    38    17    18    1
    39    55    51   am
    40    21    19   am
    41     8     6   ar
    42    52    51    2
    43    49    50    1
    44    51    50    1
    45    50    53    1
    46    74    73    1
    47    58    57    2
    48    12    11    1
    49    11     9   ar
    50    57    61   am
    51    18    19    1
    52    73    72    1
    53    19    20    2
    54     6     5    1
    55     6     7   ar
    56     2     5    1
    57     2     3    1
    58     2     1    1
    59    72    71    1
    60    53    54    1
    61     3     4    2
    62    54   100    1
    63    71    68    1
    64    61    62    1
    65     9     7   ar
    66    67    68    1
    67    70    69    2
    68    63    62    1
    69    63    64    2
    70    68    69    1
    71    62    65    1
    72   112   111    1
    73   100    99    1
    74   111   109   ar
    75   111   110   ar
    76   109   107   ar
    77    66    65    1
    78   110   108   ar
    79    99    96    1
    80   107   106   ar
    81   108   106   ar
    82    98    97    2
    83   106   105    1
    84    85    84   ar
    85    86    84   ar
    86    96    97    1
    87    96    95    1
    88    84    83    1
    89   105   102    1
    90    95    89   am
    91    90    89    2
    92    89    88    1
    93    83    82    1
    94   101   102    1
    95   102   103    1
    96    88    91    1
    97    88    87    1
    98    82    79    1
    99    91    92    1
   100   104   103    2
   101    79    78    1
   102    79    80    1
   103    93    92   ar
   104    92    94   ar
   105    80    81    2
