@<TRIPOS>MOLECULE
tmp/1syoA00.pdb
 84 80 0 0 0
SMALL
GASTEIGER

@<TRIPOS>ATOM
      1  N         -7.3420  -16.0690   18.3020 N.3    59  LEU59      -0.1231
      2  CA        -6.9600  -17.2950   17.6070 C.3    59  LEU59       0.1693
      3  C         -5.4730  -17.2120   17.3590 C.2    59  LEU59       0.2592
      4  O         -4.9940  -17.4390   16.2530 O.2    59  LEU59      -0.2718
      5  CB        -7.7070  -17.4230   16.2710 C.3    59  LEU59       0.0284
      6  CG        -9.2430  -17.4560   16.3010 C.3    59  LEU59       0.0019
      7  CD1       -9.7580  -16.1150   16.7690 C.3    59  LEU59       0.0001
      8  CD2       -9.8090  -17.7610   14.9140 C.3    59  LEU59       0.0001
      9  N         -4.7430  -16.8910   18.4170 N.am   60  LYS60      -0.1966
     10  CA        -3.3070  -16.7420   18.3370 C.3    60  LYS60       0.1728
     11  C         -2.5400  -17.9980   18.7150 C.2    60  LYS60       0.2616
     12  O         -2.9710  -18.7680   19.5690 O.2    60  LYS60      -0.2715
     13  CB        -2.8750  -15.5840   19.2480 C.3    60  LYS60       0.0311
     14  CG        -1.3610  -15.4170   19.4010 C.3    60  LYS60       0.0038
     15  CD        -1.0260  -14.4220   20.5080 C.3    60  LYS60       0.0206
     16  CE        -1.5320  -14.9170   21.8610 C.3    60  LYS60       0.1093
     17  NZ        -1.3260  -13.9280   22.9500 N.3    60  LYS60      -0.1314
     18  N         -1.4100  -18.2120   18.0490 N.am   61  THR61      -0.1951
     19  CA        -0.5330  -19.3350   18.3570 C.3    61  THR61       0.1897
     20  C          0.8330  -18.6790   18.4800 C.2    61  THR61       0.2313
     21  O          1.3220  -18.0910   17.5120 O.2    61  THR61      -0.2863
     22  CB        -0.5100  -20.3980   17.2370 C.3    61  THR61       0.1794
     23  OG1       -1.7900  -21.0280   17.1550 O.3    61  THR61      -0.2208
     24  CG2        0.5180  -21.4590   17.5370 C.3    61  THR61       0.0378
     25  N          1.2490  -16.3150   15.1380 N.3    68  GLU68      -0.1245
     26  CA         0.3180  -16.6700   14.0870 C.3    68  GLU68       0.1567
     27  C         -1.0800  -16.2990   14.5410 C.2    68  GLU68       0.2260
     28  O         -1.4530  -16.5500   15.6850 O.2    68  GLU68      -0.2867
     29  CB         0.4050  -18.1700   13.8070 C.3    68  GLU68       0.0388
     30  CG         1.8350  -18.6600   13.5790 C.3    68  GLU68       0.1160
     31  CD         1.9070  -20.1260   13.1820 C.2    68  GLU68       0.3649
     32  OE1        1.3930  -20.9840   13.9310 O.co2  68  GLU68      -0.2457
     33  OE2        2.4840  -20.4210   12.1160 O.co2  68  GLU68      -0.2457
     34  N         -4.9900  -16.7790   13.3260 N.3    70  ASN70      -0.1225
     35  CA        -5.9460  -17.4090   12.4230 C.3    70  ASN70       0.1785
     36  C         -7.2410  -16.6030   12.4230 C.2    70  ASN70       0.2597
     37  O         -7.4420  -15.7290   13.2640 O.2    70  ASN70      -0.2718
     38  CB        -6.2290  -18.8610   12.8550 C.3    70  ASN70       0.1169
     39  CG        -5.0580  -19.8040   12.5700 C.2    70  ASN70       0.2627
     40  OD1       -5.2420  -20.8530   11.9590 O.2    70  ASN70      -0.2716
     41  ND2       -3.8560  -19.4430   13.0100 N.am   70  ASN70      -0.0877
     42  N         -8.1020  -16.8820   11.4540 N.am   71  THR71      -0.1953
     43  CA        -9.3920  -16.2150   11.3520 C.3    71  THR71       0.1897
     44  C        -10.4150  -17.3200   11.1360 C.2    71  THR71       0.2313
     45  O        -10.0720  -18.5040   11.1890 O.2    71  THR71      -0.2863
     46  CB        -9.4610  -15.2420   10.1520 C.3    71  THR71       0.1794
     47  OG1       -9.2460  -15.9620    8.9320 O.3    71  THR71      -0.2208
     48  CG2       -8.4230  -14.1570   10.2860 C.3    71  THR71       0.0378
     49  N        -10.7350  -25.6270    3.0590 N.3    79  ASN79      -0.1225
     50  CA        -9.9920  -26.1120    4.2240 C.3    79  ASN79       0.1785
     51  C         -8.9090  -25.1320    4.6800 C.2    79  ASN79       0.2597
     52  O         -8.1210  -25.4310    5.5830 O.2    79  ASN79      -0.2718
     53  CB        -9.3560  -27.4700    3.9170 C.3    79  ASN79       0.1169
     54  CG       -10.3780  -28.5090    3.4890 C.2    79  ASN79       0.2627
     55  OD1      -11.3600  -28.7500    4.1960 O.2    79  ASN79      -0.2716
     56  ND2      -10.1500  -29.1350    2.3320 N.am   79  ASN79      -0.0877
     57  N         -8.8760  -23.9650    4.0450 N.am   80  HIS80      -0.1961
     58  CA        -7.9080  -22.9360    4.3820 C.3    80  HIS80       0.1787
     59  C         -8.6250  -21.6640    4.8050 C.2    80  HIS80       0.2620
     60  O         -9.5330  -21.1890    4.1190 O.2    80  HIS80      -0.2715
     61  CB        -7.0020  -22.6400    3.1850 C.3    80  HIS80       0.0785
     62  CG        -5.8300  -23.5660    3.0660 C.ar   80  HIS80       0.0821
     63  ND1       -4.6420  -23.3550    3.7330 N.ar   80  HIS80      -0.2267
     64  CD2       -5.6670  -24.7120    2.3620 C.ar   80  HIS80       0.1154
     65  CE1       -3.7970  -24.3290    3.4420 C.ar   80  HIS80       0.1986
     66  NE2       -4.3950  -25.1650    2.6120 N.ar   80  HIS80      -0.2212
     67  N         -8.2220  -21.1240    5.9480 N.am   81  LYS81      -0.1977
     68  CA        -8.8090  -19.8950    6.4490 C.3    81  LYS81       0.1596
     69  C         -7.7230  -18.8380    6.4260 C.2    81  LYS81       0.2287
     70  O         -6.5380  -19.1610    6.4640 O.2    81  LYS81      -0.2864
     71  CB        -9.3340  -20.0980    7.8670 C.3    81  LYS81       0.0298
     72  CG       -10.5120  -21.0490    7.9260 C.3    81  LYS81       0.0038
     73  CD       -10.8580  -21.4290    9.3470 C.3    81  LYS81       0.0206
     74  CE       -12.0920  -22.3200    9.3830 C.3    81  LYS81       0.1093
     75  NZ       -13.2940  -21.6260    8.8330 N.3    81  LYS81      -0.1314
     76  N         -5.0860  -16.0140    7.4520 N.3    83  GLN83      -0.1245
     77  CA        -4.2160  -15.8920    8.6110 C.3    83  GLN83       0.1566
     78  C         -3.0500  -14.9280    8.4150 C.2    83  GLN83       0.2260
     79  O         -2.7250  -14.5100    7.2940 O.2    83  GLN83      -0.2867
     80  CB        -3.6930  -17.2750    9.0320 C.3    83  GLN83       0.0367
     81  CG        -3.1020  -18.1150    7.9060 C.3    83  GLN83       0.0905
     82  CD        -2.6440  -19.5040    8.3690 C.2    83  GLN83       0.2608
     83  OE1       -3.4160  -20.2700    8.9600 O.2    83  GLN83      -0.2717
     84  NE2       -1.3840  -19.8320    8.0930 N.am   83  GLN83      -0.0878
@<TRIPOS>BOND
     1    56    54   am
     2    64    66   ar
     3    64    62   ar
     4    66    65   ar
     5    49    50    1
     6    62    61    1
     7    62    63   ar
     8    61    58    1
     9    65    63   ar
    10    54    53    1
    11    54    55    2
    12    53    50    1
    13    57    58    1
    14    57    51   am
    15    60    59    2
    16    50    51    1
    17    58    59    1
    18    51    52    2
    19    59    67   am
    20    67    68    1
    21    69    68    1
    22    69    70    2
    23    68    71    1
    24    79    78    2
    25    76    77    1
    26    71    72    1
    27    81    82    1
    28    81    80    1
    29    72    73    1
    30    84    82   am
    31    82    83    2
    32    78    77    1
    33    77    80    1
    34    75    74    1
    35    47    46    1
    36    73    74    1
    37    46    48    1
    38    46    43    1
    39    44    45    2
    40    44    43    1
    41    43    42    1
    42    42    36   am
    43    40    39    2
    44    33    31   ar
    45    36    35    1
    46    36    37    2
    47    35    38    1
    48    35    34    1
    49    39    38    1
    50    39    41   am
    51    31    30    1
    52    31    32   ar
    53    30    29    1
    54    29    26    1
    55    26    27    1
    56    26    25    1
    57    27    28    2
    58     8     6    1
    59     4     3    2
    60     5     6    1
    61     5     2    1
    62     6     7    1
    63    23    22    1
    64    22    24    1
    65    22    19    1
    66     3     2    1
    67     3     9   am
    68    21    20    2
    69     2     1    1
    70    18    19    1
    71    18    11   am
    72    10     9    1
    73    10    11    1
    74    10    13    1
    75    19    20    1
    76    11    12    2
    77    13    14    1
    78    14    15    1
    79    15    16    1
    80    16    17    1
