@<TRIPOS>MOLECULE
tmp/1sz2B00.pdb
 107 104 0 0 0
SMALL
GASTEIGER

@<TRIPOS>ATOM
      1  N         43.6560   -1.2020   24.0560 N.3    63  ALA63      -0.1231
      2  CA        42.8900   -0.3190   23.1920 C.3    63  ALA63       0.1694
      3  C         42.8020   -0.7780   21.7190 C.2    63  ALA63       0.2592
      4  O         43.2060   -0.0370   20.7910 O.2    63  ALA63      -0.2718
      5  CB        43.4420    1.1360   23.2790 C.3    63  ALA63       0.0304
      6  N         42.2650   -1.9810   21.5030 N.am   64  CYS64      -0.1957
      7  CA        41.9970   -2.4910   20.1590 C.3    64  CYS64       0.1828
      8  C         40.9390   -3.6360   20.2510 C.2    64  CYS64       0.2467
      9  O         40.6990   -4.1500   21.3490 O.2    64  CYS64      -0.2730
     10  CB        43.3100   -2.9710   19.5080 C.3    64  CYS64       0.0996
     11  SG        43.9320   -4.4580   20.2860 S.3    64  CYS64      -0.0797
     12  N         40.3020   -4.0090   19.1350 N.am   65  PRO65      -0.2726
     13  CA        39.3120   -5.0970   19.1370 C.3    65  PRO65       0.1402
     14  C         39.9350   -6.3780   19.6620 C.2    65  PRO65       0.2269
     15  O         41.0440   -6.6630   19.2760 O.2    65  PRO65      -0.2865
     16  CB        38.9440   -5.2720   17.6460 C.3    65  PRO65       0.0296
     17  CG        39.5060   -4.1460   16.9160 C.3    65  PRO65       0.0237
     18  CD        40.4890   -3.4350   17.7910 C.3    65  PRO65       0.0939
     19  N         38.9350   -5.4980   25.7850 N.3    96  ASN96      -0.1225
     20  CA        39.0100   -4.1870   25.1380 C.3    96  ASN96       0.1785
     21  C         39.0660   -3.0870   26.2250 C.2    96  ASN96       0.2597
     22  O         38.5190   -3.2880   27.3180 O.2    96  ASN96      -0.2718
     23  CB        37.7810   -3.9580   24.2310 C.3    96  ASN96       0.1169
     24  CG        37.7770   -2.5800   23.5720 C.2    96  ASN96       0.2627
     25  OD1       38.6070   -2.2830   22.7010 O.2    96  ASN96      -0.2716
     26  ND2       36.8310   -1.7590   23.9420 N.am   96  ASN96      -0.0877
     27  N         39.6860   -1.9330   25.9230 N.am   97  ASP97      -0.1960
     28  CA        39.8050   -0.8390   26.8970 C.3    97  ASP97       0.1840
     29  C         38.4400   -0.2870   27.3610 C.2    97  ASP97       0.2622
     30  O         38.2890    0.2130   28.4880 O.2    97  ASP97      -0.2715
     31  CB        40.7480    0.2950   26.3970 C.3    97  ASP97       0.1450
     32  CG        40.2740    0.9620   25.0970 C.2    97  ASP97       0.3671
     33  OD1       39.4660    0.3630   24.3560 O.co2  97  ASP97      -0.2456
     34  OD2       40.6380    2.1010   24.7290 O.co2  97  ASP97      -0.2456
     35  N         37.4320   -0.3920   26.5180 N.am   98  PHE98      -0.1974
     36  CA        36.1460    0.1770   26.9130 C.3    98  PHE98       0.1639
     37  C         35.2630   -0.8450   27.5790 C.2    98  PHE98       0.2290
     38  O         34.3410   -0.5000   28.2670 O.2    98  PHE98      -0.2864
     39  CB        35.4810    0.9450   25.7660 C.3    98  PHE98       0.0560
     40  CG        35.8450    2.3920   25.7700 C.ar   98  PHE98      -0.0200
     41  CD1       34.9420    3.3590   26.2590 C.ar   98  PHE98      -0.0042
     42  CD2       37.1240    2.7870   25.3910 C.ar   98  PHE98      -0.0042
     43  CE1       35.2990    4.7100   26.2980 C.ar   98  PHE98      -0.0003
     44  CE2       37.4980    4.1390   25.4310 C.ar   98  PHE98      -0.0003
     45  CZ        36.5760    5.1090   25.8890 C.ar   98  PHE98      -0.0000
     46  N         42.8230    8.6050   21.6370 N.3   132  THR132     -0.1203
     47  CA        43.5110    8.2150   20.4010 C.3   132  THR132      0.1994
     48  C         42.5010    7.6590   19.4110 C.2   132  THR132      0.2618
     49  O         42.6160    7.8920   18.1950 O.2   132  THR132     -0.2717
     50  CB        44.6110    7.1380   20.6520 C.3   132  THR132      0.1784
     51  OG1       45.6830    7.6860   21.4450 O.3   132  THR132     -0.2211
     52  CG2       45.3310    6.8020   19.3070 C.3   132  THR132      0.0376
     53  N         41.5100    6.9300   19.9370 N.am  133  GLY133     -0.1942
     54  CA        40.3950    6.4580   19.1350 C.3   133  GLY133      0.2014
     55  C         39.0750    6.8460   19.7700 C.2   133  GLY133      0.2639
     56  O         39.0420    7.5390   20.7920 O.2   133  GLY133     -0.2714
     57  N         37.9800    6.4240   19.1410 N.am  134  LEU134     -0.1963
     58  CA        36.6670    6.5960   19.7360 C.3   134  LEU134      0.1728
     59  C         36.2530    5.2300   20.2780 C.2   134  LEU134      0.2617
     60  O         36.0850    4.2720   19.4900 O.2   134  LEU134     -0.2715
     61  CB        35.6850    7.0750   18.6680 C.3   134  LEU134      0.0311
     62  CG        34.2120    7.3290   19.0320 C.3   134  LEU134      0.0022
     63  CD1       34.0280    8.2710   20.2650 C.3   134  LEU134      0.0001
     64  CD2       33.5180    7.9130   17.8560 C.3   134  LEU134      0.0001
     65  N         36.1330    5.1070   21.5970 N.am  135  GLY135     -0.1940
     66  CA        35.7090    3.8360   22.1890 C.3   135  GLY135      0.2014
     67  C         34.2170    3.8580   22.5420 C.2   135  GLY135      0.2638
     68  O         33.6750    4.9110   22.8490 O.2   135  GLY135     -0.2714
     69  N         33.5420    2.7110   22.4080 N.am  136  VAL136     -0.1977
     70  CA        32.1920    2.5360   22.9190 C.3   136  VAL136      0.1596
     71  C         31.9680    1.1330   23.4610 C.2   136  VAL136      0.2287
     72  O         32.3270    0.1570   22.8060 O.2   136  VAL136     -0.2864
     73  CB        31.0020    3.1390   22.0240 C.3   136  VAL136      0.0276
     74  CG1       31.4160    3.6500   20.7260 C.3   136  VAL136      0.0022
     75  CG2       29.7210    2.2230   21.9270 C.3   136  VAL136      0.0022
     76  N         32.1750   -3.4720   21.7370 N.3   151  GLY151     -0.1210
     77  CA        31.8680   -3.2920   20.3460 C.3   151  GLY151      0.1956
     78  C         32.9330   -2.4350   19.7200 C.2   151  GLY151      0.2611
     79  O         33.9610   -2.1700   20.3440 O.2   151  GLY151     -0.2717
     80  N         32.6730   -2.0200   18.4880 N.am  152  GLU152     -0.1979
     81  CA        33.5560   -1.1580   17.7310 C.3   152  GLU152      0.1602
     82  C         32.7090   -0.0280   17.2470 C.2   152  GLU152      0.2287
     83  O         32.8230    0.3920   16.0980 O.2   152  GLU152     -0.2864
     84  CB        34.1620   -1.9360   16.5530 C.3   152  GLU152      0.0415
     85  CG        35.2640   -2.9350   16.9840 C.3   152  GLU152      0.1163
     86  CD        36.4500   -2.2480   17.6740 C.2   152  GLU152      0.3649
     87  OE1       36.8870   -1.1860   17.1900 O.co2 152  GLU152     -0.2457
     88  OE2       36.9410   -2.7390   18.7310 O.co2 152  GLU152     -0.2457
     89  N         33.3580    3.1540   15.1420 N.3   155  HIS155     -0.1241
     90  CA        33.6110    3.0800   13.7230 C.3   155  HIS155      0.1621
     91  C         32.3810    3.1590   12.8430 C.2   155  HIS155      0.2264
     92  O         32.5110    2.9510   11.6560 O.2   155  HIS155     -0.2867
     93  CB        34.4940    1.8690   13.3770 C.3   155  HIS155      0.0745
     94  CG        35.7830    1.8730   14.1280 C.ar  155  HIS155      0.0817
     95  ND1       36.7760    2.7930   13.8720 N.ar  155  HIS155     -0.2268
     96  CD2       36.2160    1.1260   15.1820 C.ar  155  HIS155      0.1154
     97  CE1       37.7730    2.6060   14.7240 C.ar  155  HIS155      0.1986
     98  NE2       37.4650    1.5910   15.5180 N.ar  155  HIS155     -0.2212
     99  N         34.8430    8.1000   14.5070 N.3   182  GLU182     -0.1245
    100  CA        36.1930    8.2220   15.0500 C.3   182  GLU182      0.1567
    101  C         37.0220    9.2840   14.3110 C.2   182  GLU182      0.2260
    102  O         37.8150    9.9840   14.9230 O.2   182  GLU182     -0.2867
    103  CB        36.9300    6.8830   15.0650 C.3   182  GLU182      0.0388
    104  CG        38.3540    7.0500   15.5780 C.3   182  GLU182      0.1160
    105  CD        39.0810    5.7420   15.7410 C.2   182  GLU182      0.3649
    106  OE1       39.8880    5.4450   14.8530 O.co2 182  GLU182     -0.2457
    107  OE2       38.8740    5.0120   16.7510 O.co2 182  GLU182     -0.2457
@<TRIPOS>BOND
     1    92    91    2
     2    91    90    1
     3    93    90    1
     4    93    94    1
     5    90    89    1
     6    95    94   ar
     7    95    97   ar
     8    94    96   ar
     9   101   102    2
    10   101   100    1
    11    99   100    1
    12    97    98   ar
    13   106   105   ar
    14   100   103    1
    15   103   104    1
    16    96    98   ar
    17   104   105    1
    18   105   107   ar
    19    83    82    2
    20    84    85    1
    21    84    81    1
    22    17    16    1
    23    17    18    1
    24    85    86    1
    25    87    86   ar
    26    82    81    1
    27    16    13    1
    28    86    88   ar
    29    81    80    1
    30    18    12    1
    31    64    62    1
    32    49    48    2
    33    80    78   am
    34    61    62    1
    35    61    58    1
    36    62    63    1
    37    54    55    1
    38    54    53    1
    39    12    13    1
    40    12     8   am
    41    13    14    1
    42    57    58    1
    43    57    55   am
    44    15    14    2
    45    52    50    1
    46    48    53   am
    47    48    47    1
    48    60    59    2
    49    10     7    1
    50    10    11    1
    51    78    79    2
    52    78    77    1
    53    58    59    1
    54    55    56    2
    55     7     8    1
    56     7     6    1
    57     8     9    2
    58    59    65   am
    59    77    76    1
    60    47    50    1
    61    47    46    1
    62    50    51    1
    63    74    73    1
    64     4     3    2
    65     6     3   am
    66    65    66    1
    67     3     2    1
    68    75    73    1
    69    73    70    1
    70    66    67    1
    71    69    67   am
    72    69    70    1
    73    67    68    2
    74    25    24    2
    75    72    71    2
    76    70    71    1
    77     2     5    1
    78     2     1    1
    79    24    26   am
    80    24    23    1
    81    23    20    1
    82    33    32   ar
    83    34    32   ar
    84    32    31    1
    85    20    19    1
    86    20    21    1
    87    42    44   ar
    88    42    40   ar
    89    44    45   ar
    90    39    40    1
    91    39    36    1
    92    40    41   ar
    93    45    43   ar
    94    27    21   am
    95    27    28    1
    96    21    22    2
    97    41    43   ar
    98    31    28    1
    99    35    36    1
   100    35    29   am
   101    28    29    1
   102    36    37    1
   103    29    30    2
   104    37    38    2
