@<TRIPOS>MOLECULE
tmp/1sz3A00.pdb
 144 137 0 0 0
SMALL
GASTEIGER

@<TRIPOS>ATOM
      1  N         43.0840   -3.9770   34.5130 N.3    13  LEU13      -0.1231
      2  CA        42.8350   -2.6750   33.9190 C.3    13  LEU13       0.1693
      3  C         41.4850   -2.5950   33.2360 C.2    13  LEU13       0.2592
      4  O         41.0130   -3.5560   32.6330 O.2    13  LEU13      -0.2718
      5  CB        43.9180   -2.3540   32.8870 C.3    13  LEU13       0.0284
      6  CG        45.3600   -2.2490   33.3800 C.3    13  LEU13       0.0019
      7  CD1       46.2810   -2.0630   32.1880 C.3    13  LEU13       0.0001
      8  CD2       45.4900   -1.0880   34.3450 C.3    13  LEU13       0.0001
      9  N         40.8640   -1.4630   33.3380 N.am   14  ARG14      -0.1966
     10  CA        39.6170   -1.2710   32.6300 C.3    14  ARG14       0.1729
     11  C         39.6670    0.1140   31.9500 C.2    14  ARG14       0.2616
     12  O         40.1980    1.0720   32.5090 O.2    14  ARG14      -0.2715
     13  CB        38.4540   -1.1640   33.7230 C.3    14  ARG14       0.0348
     14  CG        38.0290   -2.5360   34.2480 C.3    14  ARG14       0.0492
     15  CD        36.9080   -2.4020   35.2740 C.3    14  ARG14       0.2205
     16  NE        36.2040   -3.6620   35.5100 N.pl3  14  ARG14      -0.0865
     17  CZ        36.7430   -4.7330   36.0870 C.cat  14  ARG14       0.5346
     18  NH1       38.0050   -4.7130   36.5000 N.pl3  14  ARG14       0.1354
     19  NH2       36.0160   -5.8300   36.2500 N.pl3  14  ARG14       0.1354
     20  N         39.1040    0.1450   30.7460 N.am   15  ALA15      -0.1977
     21  CA        39.0630    1.3620   29.9360 C.3    15  ALA15       0.1597
     22  C         37.6160    1.6180   29.5480 C.2    15  ALA15       0.2287
     23  O         36.8230    0.6850   29.4420 O.2    15  ALA15      -0.2864
     24  CB        39.9100    1.2040   28.6840 C.3    15  ALA15       0.0319
     25  N         46.1670    9.0710   17.0710 N.3    32  GLU32      -0.1245
     26  CA        47.4350    8.8960   17.7820 C.3    32  GLU32       0.1567
     27  C         48.4780    9.8360   17.1750 C.2    32  GLU32       0.2260
     28  O         48.3610   10.2520   16.0190 O.2    32  GLU32      -0.2867
     29  CB        47.9350    7.4560   17.6270 C.3    32  GLU32       0.0388
     30  CG        46.8620    6.3960   17.7530 C.3    32  GLU32       0.1160
     31  CD        47.3830    5.0060   17.4180 C.2    32  GLU32       0.3649
     32  OE1       48.2400    4.8880   16.5150 O.co2  32  GLU32      -0.2457
     33  OE2       46.9260    4.0300   18.0480 O.co2  32  GLU32      -0.2457
     34  N         41.1190    6.0420   16.8340 N.3    43  HIS43      -0.1226
     35  CA        40.3520    5.2610   17.7970 C.3    43  HIS43       0.1752
     36  C         39.2480    6.1180   18.4170 C.2    43  HIS43       0.2595
     37  O         39.2060    7.3340   18.2140 O.2    43  HIS43      -0.2718
     38  CB        41.2810    4.7040   18.8860 C.3    43  HIS43       0.0759
     39  CG        42.0780    5.7490   19.6000 C.ar   43  HIS43       0.0818
     40  ND1       41.5230    6.6100   20.5230 N.ar   43  HIS43      -0.2268
     41  CD2       43.3900    6.0780   19.5200 C.ar   43  HIS43       0.1154
     42  CE1       42.4570    7.4250   20.9800 C.ar   43  HIS43       0.1986
     43  NE2       43.5990    7.1250   20.3870 N.ar   43  HIS43      -0.2212
     44  N         38.3290    5.4890   19.1420 N.am   44  ILE44      -0.1980
     45  CA        37.2610    6.2480   19.7860 C.3    44  ILE44       0.1595
     46  C         37.8300    6.9500   21.0210 C.2    44  ILE44       0.2287
     47  O         38.8870    6.5650   21.5300 O.2    44  ILE44      -0.2864
     48  CB        36.0840    5.3350   20.2480 C.3    44  ILE44       0.0276
     49  CG1       36.5650    4.3520   21.3220 C.3    44  ILE44       0.0022
     50  CG2       35.5040    4.5810   19.0600 C.3    44  ILE44       0.0022
     51  CD1       35.4350    3.5500   21.9680 C.3    44  ILE44       0.0001
     52  N         38.5760    7.3980   24.5010 N.3    46  SER46      -0.1202
     53  CA        38.5420    6.3840   25.5490 C.3    46  SER46       0.2020
     54  C         39.7730    6.5090   26.4190 C.2    46  SER46       0.2619
     55  O         40.8180    6.9740   25.9670 O.2    46  SER46      -0.2717
     56  CB        38.5000    4.9940   24.9030 C.3    46  SER46       0.2103
     57  OG        38.6110    3.9550   25.8630 O.3    46  SER46      -0.2182
     58  N         39.6480    6.0980   27.6740 N.am   47  GLY47      -0.1942
     59  CA        40.7760    6.1840   28.5740 C.3    47  GLY47       0.2014
     60  C         40.6110    5.2590   29.7530 C.2    47  GLY47       0.2638
     61  O         39.5770    4.6120   29.9180 O.2    47  GLY47      -0.2714
     62  N         41.6370    5.2160   30.5900 N.am   48  ALA48      -0.1977
     63  CA        41.6330    4.3570   31.7610 C.3    48  ALA48       0.1597
     64  C         40.5690    4.7080   32.7950 C.2    48  ALA48       0.2287
     65  O         40.3050    5.8800   33.0710 O.2    48  ALA48      -0.2864
     66  CB        43.0100    4.3830   32.4160 C.3    48  ALA48       0.0319
     67  N         39.5520   14.4010   26.1790 N.3    66  GLU66      -0.1245
     68  CA        40.2290   14.2780   24.8950 C.3    66  GLU66       0.1567
     69  C         39.7000   15.1410   23.7660 C.2    66  GLU66       0.2260
     70  O         40.4660   15.5350   22.8890 O.2    66  GLU66      -0.2867
     71  CB        40.2200   12.8180   24.4270 C.3    66  GLU66       0.0388
     72  CG        40.7910   11.8370   25.4360 C.3    66  GLU66       0.1160
     73  CD        40.9950   10.4550   24.8500 C.2    66  GLU66       0.3649
     74  OE1       40.2660   10.0990   23.9020 O.co2  66  GLU66      -0.2457
     75  OE2       41.8770    9.7170   25.3420 O.co2  66  GLU66      -0.2457
     76  N         47.6440   -7.9880   27.4360 N.3    84  PHE84      -0.1228
     77  CA        48.9580   -7.4920   27.0490 C.3    84  PHE84       0.1721
     78  C         49.9410   -8.6640   27.1080 C.2    84  PHE84       0.2437
     79  O         49.6610   -9.6830   27.7410 O.2    84  PHE84      -0.2733
     80  CB        49.3780   -6.3630   27.9960 C.3    84  PHE84       0.0547
     81  CG        48.5580   -5.1160   27.8350 C.ar   84  PHE84      -0.0202
     82  CD1       48.7120   -4.3120   26.7080 C.ar   84  PHE84      -0.0042
     83  CD2       47.5870   -4.7780   28.7670 C.ar   84  PHE84      -0.0042
     84  CE1       47.9070   -3.1920   26.5110 C.ar   84  PHE84      -0.0003
     85  CE2       46.7720   -3.6570   28.5800 C.ar   84  PHE84      -0.0003
     86  CZ        46.9310   -2.8650   27.4520 C.ar   84  PHE84      -0.0000
     87  N         51.1030   -8.5390   26.4420 N.am   85  PRO85      -0.2718
     88  CA        52.1080   -9.6070   26.4320 C.3    85  PRO85       0.1535
     89  C         52.4990  -10.1400   27.8100 C.2    85  PRO85       0.2598
     90  O         52.8110  -11.3230   27.9620 O.2    85  PRO85      -0.2715
     91  CB        53.2860   -8.9650   25.7050 C.3    85  PRO85       0.0310
     92  CG        52.6120   -8.0520   24.7350 C.3    85  PRO85       0.0237
     93  CD        51.5240   -7.4160   25.5840 C.3    85  PRO85       0.0939
     94  N         52.4900   -9.2710   28.8160 N.am   86  ASP86      -0.1972
     95  CA        52.8520   -9.6960   30.1620 C.3    86  ASP86       0.1709
     96  C         51.7310  -10.4240   30.9030 C.2    86  ASP86       0.2293
     97  O         51.8990  -10.8090   32.0620 O.2    86  ASP86      -0.2864
     98  CB        53.3340   -8.4990   30.9920 C.3    86  ASP86       0.1436
     99  CG        52.2770   -7.4250   31.1550 C.2    86  ASP86       0.3671
    100  OD1       51.1310   -7.6100   30.6850 O.co2  86  ASP86      -0.2456
    101  OD2       52.5990   -6.3810   31.7660 O.co2  86  ASP86      -0.2456
    102  N         48.6390   -9.1470   31.5250 N.3    88  VAL88      -0.1245
    103  CA        47.6600   -8.2340   32.1010 C.3    88  VAL88       0.1561
    104  C         46.3950   -8.1480   31.2530 C.2    88  VAL88       0.2260
    105  O         46.4660   -7.9630   30.0410 O.2    88  VAL88      -0.2867
    106  CB        48.2570   -6.8140   32.2620 C.3    88  VAL88       0.0252
    107  CG1       47.1710   -5.8330   32.6850 C.3    88  VAL88       0.0019
    108  CG2       49.3780   -6.8360   33.3050 C.3    88  VAL88       0.0019
    109  N         42.7800   -6.3830   30.1400 N.3    90  ILE90      -0.1245
    110  CA        42.1500   -5.0760   30.0910 C.3    90  ILE90       0.1561
    111  C         40.7480   -5.2340   29.5040 C.2    90  ILE90       0.2260
    112  O         40.5590   -5.8340   28.4420 O.2    90  ILE90      -0.2867
    113  CB        42.9810   -4.0600   29.2600 C.3    90  ILE90       0.0252
    114  CG1       42.2690   -2.7060   29.2410 C.3    90  ILE90       0.0019
    115  CG2       43.2080   -4.5900   27.8470 C.3    90  ILE90       0.0019
    116  CD1       43.1100   -1.5710   28.7020 C.3    90  ILE90       0.0001
    117  N         37.6580   -3.3090   28.0060 N.3    92  ARG92      -0.1245
    118  CA        37.2560   -2.0390   27.4070 C.3    92  ARG92       0.1563
    119  C         35.7320   -1.9510   27.3440 C.2    92  ARG92       0.2260
    120  O         35.0730   -2.8810   26.8840 O.2    92  ARG92      -0.2867
    121  CB        37.8510   -1.9070   25.9970 C.3    92  ARG92       0.0307
    122  CG        39.3700   -1.7510   25.9820 C.3    92  ARG92       0.0489
    123  CD        39.9380   -1.7790   24.5600 C.3    92  ARG92       0.2205
    124  NE        39.4340   -0.6900   23.7300 N.pl3  92  ARG92      -0.0865
    125  CZ        39.7760    0.5880   23.8700 C.cat  92  ARG92       0.5346
    126  NH1       40.6330    0.9550   24.8140 N.pl3  92  ARG92       0.1354
    127  NH2       39.2550    1.5030   23.0640 N.pl3  92  ARG92       0.1354
    128  N         50.1980   11.7470   23.2730 N.3   112  GLU112     -0.1231
    129  CA        49.3880   10.5900   22.9120 C.3   112  GLU112      0.1699
    130  C         48.2900   10.9210   21.9050 C.2   112  GLU112      0.2592
    131  O         47.7920   10.0330   21.2120 O.2   112  GLU112     -0.2718
    132  CB        48.7490    9.9860   24.1660 C.3   112  GLU112      0.0402
    133  CG        49.6980    9.1650   25.0210 C.3   112  GLU112      0.1161
    134  CD        50.0360    7.8280   24.3890 C.2   112  GLU112      0.3649
    135  OE1       50.5780    7.8180   23.2630 O.co2 112  GLU112     -0.2457
    136  OE2       49.7580    6.7860   25.0200 O.co2 112  GLU112     -0.2457
    137  N         47.9180   12.1950   21.8200 N.am  113  ILE113     -0.1980
    138  CA        46.8530   12.6150   20.9120 C.3   113  ILE113      0.1595
    139  C         47.2830   13.7090   19.9370 C.2   113  ILE113      0.2287
    140  O         47.7150   14.7790   20.3560 O.2   113  ILE113     -0.2864
    141  CB        45.6380   13.1330   21.7050 C.3   113  ILE113      0.0276
    142  CG1       45.1280   12.0430   22.6500 C.3   113  ILE113      0.0022
    143  CG2       44.5420   13.5660   20.7510 C.3   113  ILE113      0.0022
    144  CD1       44.0350   12.5100   23.5870 C.3   113  ILE113      0.0001
@<TRIPOS>BOND
     1    28    27    2
     2    32    31   ar
     3    34    35    1
     4    25    26    1
     5    27    26    1
     6    31    30    1
     7    31    33   ar
     8    29    30    1
     9    29    26    1
    10    35    36    1
    11    35    38    1
    12    37    36    2
    13    36    44   am
    14    38    39    1
    15    50    48    1
    16    44    45    1
    17    41    39   ar
    18    41    43   ar
    19    39    40   ar
    20    45    48    1
    21    45    46    1
    22   139   140    2
    23   139   138    1
    24    48    49    1
    25    43    42   ar
    26    40    42   ar
    27   143   141    1
    28   138   141    1
    29   138   137    1
    30    46    47    2
    31   131   130    2
    32    49    51    1
    33   141   142    1
    34   137   130   am
    35   130   129    1
    36   142   144    1
    37    70    69    2
    38   129   128    1
    39   129   132    1
    40   127   125    1
    41   135   134   ar
    42   124   125    2
    43   124   123    1
    44    69    68    1
    45   125   126    1
    46    74    73   ar
    47   132   133    1
    48   134   136   ar
    49   134   133    1
    50    71    68    1
    51    71    72    1
    52    52    53    1
    53   123   122    1
    54    92    93    1
    55    92    91    1
    56    73    75   ar
    57    73    72    1
    58    68    67    1
    59    56    53    1
    60    56    57    1
    61    53    54    1
    62    93    87    1
    63    91    88    1
    64    55    54    2
    65   122   121    1
    66   121   118    1
    67    54    58   am
    68    88    87    1
    69    88    89    1
    70    87    78   am
    71    84    82   ar
    72    84    86   ar
    73    82    81   ar
    74   120   119    2
    75    77    78    1
    76    77    76    1
    77    77    80    1
    78    78    79    2
    79   119   118    1
    80   118   117    1
    81    86    85   ar
    82    58    59    1
    83    89    90    2
    84    89    94   am
    85    81    80    1
    86    81    83   ar
    87   115   113    1
    88   112   111    2
    89    59    60    1
    90    85    83   ar
    91    24    21    1
    92   116   114    1
    93    94    95    1
    94   114   113    1
    95   113   110    1
    96    23    22    2
    97   111   110    1
    98    22    21    1
    99    60    61    2
   100    60    62   am
   101    21    20    1
   102   105   104    2
   103   110   109    1
   104    95    96    1
   105    95    98    1
   106    62    63    1
   107   100    99   ar
   108    20    11   am
   109    96    97    2
   110    98    99    1
   111    99   101   ar
   112   104   103    1
   113   102   103    1
   114    63    66    1
   115    63    64    1
   116    11    12    2
   117    11    10    1
   118   103   106    1
   119     7     6    1
   120   106   107    1
   121   106   108    1
   122    10     9    1
   123    10    13    1
   124     4     3    2
   125    64    65    2
   126     5     6    1
   127     5     2    1
   128     3     9   am
   129     3     2    1
   130     6     8    1
   131    13    14    1
   132     2     1    1
   133    14    15    1
   134    15    16    1
   135    16    17    2
   136    17    19    1
   137    17    18    1
