@<TRIPOS>MOLECULE
tmp/1sz7A00.pdb
 178 167 0 0 0
SMALL
GASTEIGER

@<TRIPOS>ATOM
      1  N         25.3040   42.8370   13.6020 N.3    43  LEU43      -0.1231
      2  CA        24.9190   41.5330   13.0660 C.3    43  LEU43       0.1693
      3  C         24.7830   40.4410   14.1490 C.2    43  LEU43       0.2591
      4  O         23.9020   39.5860   14.0590 O.2    43  LEU43      -0.2718
      5  CB        25.9360   41.1030   11.9950 C.3    43  LEU43       0.0284
      6  CG        25.6660   39.7960   11.2530 C.3    43  LEU43       0.0019
      7  CD1       24.4090   39.9160   10.4040 C.3    43  LEU43       0.0001
      8  CD2       26.8640   39.4630   10.3660 C.3    43  LEU43       0.0001
      9  N         25.6530   40.4780   15.1560 N.am   44  ILE44      -0.1980
     10  CA        25.6370   39.5110   16.2750 C.3    44  ILE44       0.1595
     11  C         24.2760   39.4990   16.9790 C.2    44  ILE44       0.2287
     12  O         23.8360   38.4550   17.4390 O.2    44  ILE44      -0.2864
     13  CB        26.8050   39.8080   17.2730 C.3    44  ILE44       0.0276
     14  CG1       26.8800   38.7640   18.3880 C.3    44  ILE44       0.0022
     15  CG2       26.6540   41.1760   17.8770 C.3    44  ILE44       0.0022
     16  CD1       27.1610   37.3980   17.8990 C.3    44  ILE44       0.0001
     17  N         21.9440   37.5220   14.8170 N.3    47  PHE47      -0.1227
     18  CA        22.3250   36.1200   14.9100 C.3    47  PHE47       0.1736
     19  C         21.8740   35.4390   16.1870 C.2    47  PHE47       0.2595
     20  O         21.3460   34.3130   16.1420 O.2    47  PHE47      -0.2718
     21  CB        23.8410   35.9390   14.7750 C.3    47  PHE47       0.0547
     22  CG        24.2400   34.5000   14.7600 C.ar   47  PHE47      -0.0202
     23  CD1       24.0960   33.7470   13.6010 C.ar   47  PHE47      -0.0042
     24  CD2       24.7060   33.8830   15.9250 C.ar   47  PHE47      -0.0042
     25  CE1       24.4380   32.3990   13.5770 C.ar   47  PHE47      -0.0003
     26  CE2       25.0450   32.5360   15.9150 C.ar   47  PHE47      -0.0003
     27  CZ        24.9120   31.7870   14.7420 C.ar   47  PHE47      -0.0000
     28  N         22.1130   36.0890   17.3180 N.am   48  LEU48      -0.1980
     29  CA        21.8120   35.4790   18.6160 C.3    48  LEU48       0.1596
     30  C         20.2990   35.3060   18.7940 C.2    48  LEU48       0.2287
     31  O         19.8500   34.3180   19.4030 O.2    48  LEU48      -0.2864
     32  CB        22.4290   36.3030   19.7430 C.3    48  LEU48       0.0297
     33  CG        23.9590   36.1950   19.9210 C.3    48  LEU48       0.0022
     34  CD1       24.4490   37.2190   20.9200 C.3    48  LEU48       0.0001
     35  CD2       24.4090   34.7940   20.3160 C.3    48  LEU48       0.0001
     36  N         22.3370   29.2830   20.4440 N.3    53  VAL53      -0.1231
     37  CA        23.6070   29.2500   21.1660 C.3    53  VAL53       0.1692
     38  C         23.5610   29.8590   22.5730 C.2    53  VAL53       0.2592
     39  O         24.2350   29.3760   23.4930 O.2    53  VAL53      -0.2718
     40  CB        24.7210   29.8940   20.3380 C.3    53  VAL53       0.0266
     41  CG1       26.0400   29.6500   20.9640 C.3    53  VAL53       0.0020
     42  CG2       24.7250   29.2980   18.9200 C.3    53  VAL53       0.0020
     43  N         22.7890   30.9280   22.7330 N.am   54  GLY54      -0.1957
     44  CA        22.7090   31.6270   24.0090 C.3    54  GLY54       0.1869
     45  C         24.0350   32.2200   24.4560 C.2    54  GLY54       0.2309
     46  O         24.7440   32.8330   23.6510 O.2    54  GLY54      -0.2863
     47  N         27.7980   31.7550   25.7400 N.3    56  CYS56      -0.1235
     48  CA        28.9170   30.8250   25.7210 C.3    56  CYS56       0.1677
     49  C         30.1950   31.5160   25.2380 C.2    56  CYS56       0.2270
     50  O         30.1420   32.4980   24.4870 O.2    56  CYS56      -0.2867
     51  CB        28.5800   29.6090   24.8490 C.3    56  CYS56       0.0956
     52  SG        28.0990   30.0480   23.1650 S.3    56  CYS56      -0.0801
     53  N         33.2170   29.5400   24.3570 N.3    58  ASP58      -0.1239
     54  CA        34.0940   28.4420   24.0060 C.3    58  ASP58       0.1674
     55  C         34.6130   28.6210   22.5790 C.2    58  ASP58       0.2266
     56  O         33.8230   28.6990   21.6550 O.2    58  ASP58      -0.2867
     57  CB        33.3480   27.1170   24.1170 C.3    58  ASP58       0.1410
     58  CG        34.2420   25.9480   23.8500 C.2    58  ASP58       0.3668
     59  OD1       35.0260   25.5650   24.7580 O.co2  58  ASP58      -0.2456
     60  OD2       34.2740   25.3600   22.7610 O.co2  58  ASP58      -0.2456
     61  N         33.5860   25.7640   19.9580 N.3    61  GLU61      -0.1231
     62  CA        32.1580   25.9000   19.6790 C.3    61  GLU61       0.1699
     63  C         31.9360   27.1180   18.7860 C.2    61  GLU61       0.2592
     64  O         31.1680   27.0670   17.8410 O.2    61  GLU61      -0.2718
     65  CB        31.3230   26.0380   20.9560 C.3    61  GLU61       0.0402
     66  CG        29.8520   26.2890   20.6510 C.3    61  GLU61       0.1161
     67  CD        28.9870   26.5030   21.8790 C.2    61  GLU61       0.3649
     68  OE1       29.5110   26.4210   23.0100 O.co2  61  GLU61      -0.2457
     69  OE2       27.7690   26.7530   21.7010 O.co2  61  GLU61      -0.2457
     70  N         32.6460   28.2070   19.0910 N.am   62  THR62      -0.1953
     71  CA        32.5700   29.4150   18.2780 C.3    62  THR62       0.1897
     72  C         33.0000   29.1960   16.8050 C.2    62  THR62       0.2313
     73  O         32.2930   29.6430   15.8820 O.2    62  THR62      -0.2863
     74  CB        33.3820   30.5360   18.9760 C.3    62  THR62       0.1794
     75  OG1       32.7140   30.8620   20.1930 O.3    62  THR62      -0.2208
     76  CG2       33.2570   31.8430   18.1980 C.3    62  THR62       0.0378
     77  N         30.1620   27.2460   15.0880 N.3    65  VAL65      -0.1231
     78  CA        28.9810   28.0460   14.8350 C.3    65  VAL65       0.1692
     79  C         29.2550   29.0510   13.7130 C.2    65  VAL65       0.2591
     80  O         28.4120   29.2440   12.8540 O.2    65  VAL65      -0.2718
     81  CB        28.4880   28.7460   16.1150 C.3    65  VAL65       0.0266
     82  CG1       27.3420   29.6730   15.8120 C.3    65  VAL65       0.0020
     83  CG2       28.0520   27.6530   17.1360 C.3    65  VAL65       0.0020
     84  N         30.4370   29.6630   13.7260 N.am   66  ILE66      -0.1980
     85  CA        30.7670   30.6140   12.6560 C.3    66  ILE66       0.1595
     86  C         30.7260   29.9120   11.3010 C.2    66  ILE66       0.2287
     87  O         30.0660   30.3810   10.3600 O.2    66  ILE66      -0.2864
     88  CB        32.1370   31.2510   12.8860 C.3    66  ILE66       0.0276
     89  CG1       32.0410   32.2770   14.0030 C.3    66  ILE66       0.0022
     90  CG2       32.6110   31.9930   11.6230 C.3    66  ILE66       0.0022
     91  CD1       33.3860   32.7160   14.5360 C.3    66  ILE66       0.0001
     92  N         26.7600   30.6290   10.7630 N.3    70  ALA70      -0.1231
     93  CA        26.7560   32.0530   10.3760 C.3    70  ALA70       0.1694
     94  C         27.1460   32.2730    8.9150 C.2    70  ALA70       0.2592
     95  O         26.4860   33.0280    8.2040 O.2    70  ALA70      -0.2718
     96  CB        27.6110   32.8730   11.3230 C.3    70  ALA70       0.0304
     97  N         28.2060   31.6240    8.4530 N.am   71  PHE71      -0.1976
     98  CA        28.5770   31.7620    7.0470 C.3    71  PHE71       0.1639
     99  C         27.4740   31.2810    6.1200 C.2    71  PHE71       0.2290
    100  O         27.1870   31.9180    5.0910 O.2    71  PHE71      -0.2864
    101  CB        29.8960   31.0470    6.7490 C.3    71  PHE71       0.0560
    102  CG        31.0970   31.9380    6.8350 C.ar   71  PHE71      -0.0200
    103  CD1       31.6980   32.2290    8.0650 C.ar   71  PHE71      -0.0042
    104  CD2       31.6310   32.4950    5.6780 C.ar   71  PHE71      -0.0042
    105  CE1       32.8170   33.0570    8.1470 C.ar   71  PHE71      -0.0003
    106  CE2       32.7700   33.3180    5.7380 C.ar   71  PHE71      -0.0003
    107  CZ        33.3620   33.6110    6.9630 C.ar   71  PHE71      -0.0000
    108  N         24.4360   33.8710    6.2740 N.3    74  TYR74      -0.1227
    109  CA        24.6480   35.2280    5.7550 C.3    74  TYR74       0.1736
    110  C         25.3450   35.3340    4.4070 C.2    74  TYR74       0.2595
    111  O         25.2780   36.4040    3.7760 O.2    74  TYR74      -0.2718
    112  CB        25.4390   36.0330    6.7820 C.3    74  TYR74       0.0548
    113  CG        24.7080   36.2250    8.1030 C.ar   74  TYR74      -0.0200
    114  CD1       23.4350   36.7770    8.1380 C.ar   74  TYR74      -0.0009
    115  CD2       25.3040   35.8590    9.3050 C.ar   74  TYR74      -0.0009
    116  CE1       22.7550   36.9600    9.3370 C.ar   74  TYR74       0.0417
    117  CE2       24.6440   36.0430   10.5090 C.ar   74  TYR74       0.0417
    118  CZ        23.3660   36.5990   10.5150 C.ar   74  TYR74       0.1957
    119  OH        22.7170   36.7770   11.7030 O.3    74  TYR74      -0.2866
    120  N         26.0340   34.2610    3.9920 N.am   75  LEU75      -0.1980
    121  CA        26.7980   34.2420    2.7380 C.3    75  LEU75       0.1596
    122  C         26.4980   33.0560    1.8200 C.2    75  LEU75       0.2287
    123  O         26.9760   33.0190    0.6630 O.2    75  LEU75      -0.2864
    124  CB        28.3010   34.3390    3.0120 C.3    75  LEU75       0.0297
    125  CG        28.7550   35.7300    3.4430 C.3    75  LEU75       0.0022
    126  CD1       30.1920   35.6930    3.8750 C.3    75  LEU75       0.0001
    127  CD2       28.5690   36.7900    2.3350 C.3    75  LEU75       0.0001
    128  N         35.0330   41.2960    5.8070 N.3   119  LEU119     -0.1245
    129  CA        34.6790   40.0790    6.5610 C.3   119  LEU119      0.1561
    130  C         35.4960   39.9110    7.8350 C.2   119  LEU119      0.2260
    131  O         34.9690   39.4270    8.8510 O.2   119  LEU119     -0.2867
    132  CB        34.7760   38.8200    5.6950 C.3   119  LEU119      0.0270
    133  CG        33.8190   38.7950    4.5150 C.3   119  LEU119      0.0019
    134  CD1       33.9940   37.4740    3.7780 C.3   119  LEU119      0.0001
    135  CD2       32.3620   38.9560    4.9600 C.3   119  LEU119      0.0001
    136  N         33.9060   42.1210   10.3540 N.3   122  VAL122     -0.1231
    137  CA        32.6250   41.5690   10.8300 C.3   122  VAL122      0.1692
    138  C         32.8650   40.5000   11.9110 C.2   122  VAL122      0.2591
    139  O         32.2050   40.5120   12.9630 O.2   122  VAL122     -0.2718
    140  CB        31.8260   40.9430    9.6710 C.3   122  VAL122      0.0266
    141  CG1       30.5590   40.2200   10.1790 C.3   122  VAL122      0.0020
    142  CG2       31.4160   42.0220    8.6920 C.3   122  VAL122      0.0020
    143  N         33.8060   39.5860   11.6530 N.am  123  LEU123     -0.1980
    144  CA        34.1420   38.5260   12.6310 C.3   123  LEU123      0.1596
    145  C         34.6010   39.1080   13.9710 C.2   123  LEU123      0.2287
    146  O         34.1680   38.6700   15.0460 O.2   123  LEU123     -0.2864
    147  CB        35.2270   37.5830   12.0770 C.3   123  LEU123      0.0297
    148  CG        34.6760   36.6980   10.9540 C.3   123  LEU123      0.0022
    149  CD1       35.8100   36.1630   10.0760 C.3   123  LEU123      0.0001
    150  CD2       33.8270   35.5420   11.5460 C.3   123  LEU123      0.0001
    151  N         31.6050   41.1170   15.7490 N.3   126  ALA126     -0.1231
    152  CA        30.6180   40.1990   16.2830 C.3   126  ALA126      0.1694
    153  C         31.1120   39.5190   17.5630 C.2   126  ALA126      0.2591
    154  O         30.3740   39.4400   18.5510 O.2   126  ALA126     -0.2718
    155  CB        30.2390   39.1650   15.2140 C.3   126  ALA126      0.0304
    156  N         32.3570   39.0580   17.5650 N.am  127  LEU127     -0.1980
    157  CA        32.8550   38.3000   18.7040 C.3   127  LEU127      0.1596
    158  C         33.1650   39.1740   19.9020 C.2   127  LEU127      0.2287
    159  O         33.0150   38.7430   21.0470 O.2   127  LEU127     -0.2864
    160  CB        34.0540   37.4310   18.3250 C.3   127  LEU127      0.0297
    161  CG        33.6570   36.2790   17.3900 C.3   127  LEU127      0.0022
    162  CD1       34.8830   35.4400   17.0990 C.3   127  LEU127      0.0001
    163  CD2       32.5310   35.4200   17.9550 C.3   127  LEU127      0.0001
    164  N         30.3350   39.2730   22.1970 N.3   130  VAL130     -0.1245
    165  CA        30.1330   38.1200   23.0750 C.3   130  VAL130      0.1561
    166  C         31.3910   37.8780   23.9190 C.2   130  VAL130      0.2260
    167  O         31.7120   36.7530   24.2940 O.2   130  VAL130     -0.2867
    168  CB        29.6030   36.8560   22.3170 C.3   130  VAL130      0.0252
    169  CG1       28.1880   37.1120   21.7930 C.3   130  VAL130      0.0019
    170  CG2       30.5510   36.4140   21.1810 C.3   130  VAL130      0.0019
    171  N         34.6420   38.0540   23.4260 N.3   132  MET132     -0.1245
    172  CA        35.8250   37.3680   22.9340 C.3   132  MET132      0.1570
    173  C         36.6440   38.3150   22.0610 C.2   132  MET132      0.2261
    174  O         36.1690   38.7490   21.0240 O.2   132  MET132     -0.2867
    175  CB        35.4390   36.1100   22.1400 C.3   132  MET132      0.0387
    176  CG        34.6290   35.0890   22.9390 C.3   132  MET132      0.0595
    177  SD        34.3200   33.5540   21.9840 S.3   132  MET132     -0.1393
    178  CE        35.8090   32.7340   22.2640 C.3   132  MET132      0.0692
@<TRIPOS>BOND
     1   123   122    2
     2   122   121    1
     3   127   125    1
     4   121   124    1
     5   121   120    1
     6   124   125    1
     7   125   126    1
     8   111   110    2
     9   134   133    1
    10   120   110   am
    11   110   109    1
    12   133   135    1
    13   133   132    1
    14   100    99    2
    15   104   106   ar
    16   104   102   ar
    17   132   129    1
    18   106   107   ar
    19   109   108    1
    20   109   112    1
    21   128   129    1
    22    99    98    1
    23   129   130    1
    24   101   102    1
    25   101    98    1
    26   112   113    1
    27   102   103   ar
    28   107   105   ar
    29    98    97    1
    30   130   131    2
    31   103   105   ar
    32   113   114   ar
    33   113   115   ar
    34   114   116   ar
    35    95    94    2
    36    97    94   am
    37   142   140    1
    38    94    93    1
    39   115   117   ar
    40   116   118   ar
    41   140   141    1
    42   140   137    1
    43   149   148    1
    44   136   137    1
    45    87    86    2
    46     8     6    1
    47    93    92    1
    48    93    96    1
    49     7     6    1
    50   117   118   ar
    51   118   119    1
    52   137   138    1
    53   148   150    1
    54   148   147    1
    55     6     5    1
    56    86    85    1
    57    90    88    1
    58   143   138   am
    59   143   144    1
    60   138   139    2
    61     5     2    1
    62   147   144    1
    63   144   145    1
    64    85    88    1
    65    85    84    1
    66    80    79    2
    67    88    89    1
    68     2     1    1
    69     2     3    1
    70    25    23   ar
    71    25    27   ar
    72    23    22   ar
    73    79    84   am
    74    79    78    1
    75   145   146    2
    76    89    91    1
    77     4     3    2
    78     3     9   am
    79    27    26   ar
    80    22    21    1
    81    22    24   ar
    82    21    18    1
    83    17    18    1
    84    78    77    1
    85    78    81    1
    86    18    19    1
    87     9    10    1
    88   155   152    1
    89   151   152    1
    90    82    81    1
    91    73    72    2
    92    26    24   ar
    93    81    83    1
    94    20    19    2
    95    19    28   am
    96    10    11    1
    97    10    13    1
    98   152   153    1
    99    72    71    1
   100    11    12    2
   101   162   161    1
   102    13    15    1
   103    13    14    1
   104    28    29    1
   105   161   163    1
   106   161   160    1
   107   153   156   am
   108   153   154    2
   109   156   157    1
   110    64    63    2
   111    16    14    1
   112    76    74    1
   113    71    74    1
   114    71    70    1
   115   160   157    1
   116    29    30    1
   117    29    32    1
   118   157   158    1
   119    63    70   am
   120    63    62    1
   121    30    31    2
   122    42    40    1
   123    74    75    1
   124    62    61    1
   125    62    65    1
   126    32    33    1
   127   158   159    2
   128    33    35    1
   129    33    34    1
   130    40    41    1
   131    40    37    1
   132    36    37    1
   133    66    65    1
   134    66    67    1
   135   174   173    2
   136    37    38    1
   137   170   168    1
   138    56    55    2
   139    69    67   ar
   140   169   168    1
   141    67    68   ar
   142   177   178    1
   143   177   176    1
   144   173   172    1
   145   175   172    1
   146   175   176    1
   147   164   165    1
   148   168   165    1
   149    38    43   am
   150    38    39    2
   151    55    54    1
   152    43    44    1
   153    60    58   ar
   154   172   171    1
   155   165   166    1
   156    52    51    1
   157    46    45    2
   158    58    57    1
   159    58    59   ar
   160   166   167    2
   161    54    57    1
   162    54    53    1
   163    44    45    1
   164    50    49    2
   165    51    48    1
   166    49    48    1
   167    48    47    1
