@<TRIPOS>MOLECULE
tmp/1szcA00.pdb
 193 191 0 0 0
SMALL
GASTEIGER

@<TRIPOS>ATOM
      1  N        -14.4540   37.2740  -50.9880 N.3    48  ARG48      -0.1245
      2  CA       -14.5800   35.9760  -51.6490 C.3    48  ARG48       0.1563
      3  C        -15.9680   35.3780  -51.4720 C.2    48  ARG48       0.2260
      4  O        -16.2830   34.3350  -52.0460 O.2    48  ARG48      -0.2867
      5  CB       -13.5560   35.0020  -51.0710 C.3    48  ARG48       0.0307
      6  CG       -12.1120   35.4630  -51.1860 C.3    48  ARG48       0.0489
      7  CD       -11.2260   34.6600  -50.2550 C.3    48  ARG48       0.2205
      8  NE       -11.6070   34.8720  -48.8600 N.pl3  48  ARG48      -0.0865
      9  CZ       -11.0670   34.2330  -47.8280 C.cat  48  ARG48       0.5346
     10  NH1      -10.1140   33.3290  -48.0290 N.pl3  48  ARG48       0.1354
     11  NH2      -11.4780   34.5010  -46.5950 N.pl3  48  ARG48       0.1354
     12  N         -9.2900   36.7900  -55.7770 N.3    67  GLU67      -0.1245
     13  CA        -7.9110   37.1750  -55.5040 C.3    67  GLU67       0.1567
     14  C         -7.1810   37.9490  -56.6030 C.2    67  GLU67       0.2260
     15  O         -6.0310   38.3530  -56.4260 O.2    67  GLU67      -0.2867
     16  CB        -7.1140   35.9490  -55.0610 C.3    67  GLU67       0.0388
     17  CG        -7.5480   35.4550  -53.6810 C.3    67  GLU67       0.1160
     18  CD        -6.7940   34.2290  -53.2100 C.2    67  GLU67       0.3649
     19  OE1       -6.9930   33.8290  -52.0410 O.co2  67  GLU67      -0.2457
     20  OE2       -6.0060   33.6640  -54.0010 O.co2  67  GLU67      -0.2457
     21  N         -5.9730   41.3260  -55.6850 N.3    70  PHE70      -0.1241
     22  CA        -4.6780   41.4420  -55.0170 C.3    70  PHE70       0.1605
     23  C         -3.5870   40.8600  -55.9150 C.2    70  PHE70       0.2264
     24  O         -2.6880   40.1620  -55.4490 O.2    70  PHE70      -0.2867
     25  CB        -4.6880   40.6870  -53.6810 C.3    70  PHE70       0.0534
     26  CG        -5.6130   41.2790  -52.6550 C.ar   70  PHE70      -0.0203
     27  CD1       -6.5890   40.4940  -52.0470 C.ar   70  PHE70      -0.0042
     28  CD2       -5.5080   42.6160  -52.2930 C.ar   70  PHE70      -0.0042
     29  CE1       -7.4490   41.0350  -51.0930 C.ar   70  PHE70      -0.0003
     30  CE2       -6.3610   43.1650  -51.3400 C.ar   70  PHE70      -0.0003
     31  CZ        -7.3350   42.3700  -50.7390 C.ar   70  PHE70      -0.0000
     32  N         -2.3030   38.4120  -40.4200 N.3   118  GLN118     -0.1245
     33  CA        -2.4110   38.3150  -41.8740 C.3   118  GLN118      0.1566
     34  C         -3.4390   39.3330  -42.3630 C.2   118  GLN118      0.2260
     35  O         -3.5580   39.5810  -43.5640 O.2   118  GLN118     -0.2867
     36  CB        -2.9090   36.9290  -42.2940 C.3   118  GLN118      0.0367
     37  CG        -2.0220   35.7770  -41.9040 C.3   118  GLN118      0.0905
     38  CD        -2.6840   34.4390  -42.1760 C.2   118  GLN118      0.2608
     39  OE1       -2.8270   34.0250  -43.3250 O.2   118  GLN118     -0.2717
     40  NE2       -3.1030   33.7660  -41.1160 N.am  118  GLN118     -0.0878
     41  N         -5.4740   42.8880  -43.0890 N.3   120  ILE120     -0.1245
     42  CA        -5.0950   44.2190  -43.5600 C.3   120  ILE120      0.1561
     43  C         -6.0570   45.2610  -43.0070 C.2   120  ILE120      0.2260
     44  O         -6.0640   46.4130  -43.4490 O.2   120  ILE120     -0.2867
     45  CB        -5.0970   44.3070  -45.0970 C.3   120  ILE120      0.0252
     46  CG1       -6.4830   43.9670  -45.6460 C.3   120  ILE120      0.0019
     47  CG2       -4.0180   43.3940  -45.6620 C.3   120  ILE120      0.0019
     48  CD1       -6.6050   44.1730  -47.1550 C.3   120  ILE120      0.0001
     49  N          0.9160   41.1080  -44.0340 N.3   138  HIS138     -0.1241
     50  CA         0.4370   41.4260  -45.3680 C.3   138  HIS138      0.1621
     51  C          0.2690   42.9150  -45.6400 C.2   138  HIS138      0.2264
     52  O         -0.4850   43.3160  -46.5290 O.2   138  HIS138     -0.2867
     53  CB        -0.8520   40.6590  -45.6230 C.3   138  HIS138      0.0745
     54  CG        -0.6500   39.1750  -45.6830 C.ar  138  HIS138      0.0817
     55  ND1       -1.6660   38.2710  -45.4620 N.ar  138  HIS138     -0.2268
     56  CD2        0.4580   38.4400  -45.9490 C.ar  138  HIS138      0.1154
     57  CE1       -1.1930   37.0420  -45.5850 C.ar  138  HIS138      0.1986
     58  NE2        0.0930   37.1170  -45.8800 N.ar  138  HIS138     -0.2212
     59  N         -0.0290   47.2160  -49.2680 N.3   184  ILE184     -0.1231
     60  CA        -0.6450   45.9250  -49.0050 C.3   184  ILE184      0.1692
     61  C          0.1220   44.9070  -49.8390 C.2   184  ILE184      0.2592
     62  O          0.4050   45.1490  -51.0070 O.2   184  ILE184     -0.2718
     63  CB        -2.1220   45.9220  -49.4510 C.3   184  ILE184      0.0266
     64  CG1       -2.9270   46.8590  -48.5560 C.3   184  ILE184      0.0019
     65  CG2       -2.6870   44.5040  -49.4130 C.3   184  ILE184      0.0020
     66  CD1       -4.3280   47.0700  -49.0340 C.3   184  ILE184      0.0001
     67  N          0.4810   43.7810  -49.2370 N.am  185  VAL185     -0.1966
     68  CA         1.2020   42.7480  -49.9660 C.3   185  VAL185      0.1727
     69  C          0.2200   42.0150  -50.8800 C.2   185  VAL185      0.2616
     70  O         -0.7580   41.4370  -50.4150 O.2   185  VAL185     -0.2715
     71  CB         1.8490   41.7280  -49.0030 C.3   185  VAL185      0.0290
     72  CG1        2.5800   40.6500  -49.8000 C.3   185  VAL185      0.0023
     73  CG2        2.8190   42.4400  -48.0620 C.3   185  VAL185      0.0023
     74  N          0.4720   42.0630  -52.1840 N.am  186  PHE186     -0.1960
     75  CA        -0.3880   41.3810  -53.1490 C.3   186  PHE186      0.1771
     76  C          0.1400   39.9680  -53.3530 C.2   186  PHE186      0.2620
     77  O          1.3080   39.6930  -53.0770 O.2   186  PHE186     -0.2715
     78  CB        -0.3700   42.1220  -54.4910 C.3   186  PHE186      0.0574
     79  CG        -1.3400   43.2710  -54.5780 C.ar  186  PHE186     -0.0200
     80  CD1       -1.7980   43.9240  -53.4310 C.ar  186  PHE186     -0.0042
     81  CD2       -1.7790   43.7200  -55.8220 C.ar  186  PHE186     -0.0042
     82  CE1       -2.6740   45.0030  -53.5280 C.ar  186  PHE186     -0.0003
     83  CE2       -2.6560   44.8000  -55.9260 C.ar  186  PHE186     -0.0003
     84  CZ        -3.1050   45.4440  -54.7730 C.ar  186  PHE186     -0.0000
     85  N         -0.7140   39.0640  -53.8220 N.am  187  PHE187     -0.1960
     86  CA        -0.2630   37.7020  -54.0720 C.3   187  PHE187      0.1771
     87  C          0.8630   37.7870  -55.0930 C.2   187  PHE187      0.2620
     88  O          0.7670   38.5240  -56.0740 O.2   187  PHE187     -0.2715
     89  CB        -1.4140   36.8450  -54.6000 C.3   187  PHE187      0.0574
     90  CG        -2.3370   36.3570  -53.5230 C.ar  187  PHE187     -0.0200
     91  CD1       -1.9770   35.2800  -52.7220 C.ar  187  PHE187     -0.0042
     92  CD2       -3.5420   37.0030  -53.2740 C.ar  187  PHE187     -0.0042
     93  CE1       -2.8000   34.8530  -51.6800 C.ar  187  PHE187     -0.0003
     94  CE2       -4.3730   36.5860  -52.2350 C.ar  187  PHE187     -0.0003
     95  CZ        -4.0000   35.5080  -51.4350 C.ar  187  PHE187     -0.0000
     96  N          1.9420   37.0550  -54.8450 N.am  188  GLY188     -0.1940
     97  CA         3.0680   37.0930  -55.7580 C.3   188  GLY188      0.2014
     98  C          4.1610   38.0500  -55.3110 C.2   188  GLY188      0.2639
     99  O          5.2580   38.0400  -55.8710 O.2   188  GLY188     -0.2714
    100  N          3.8690   38.8870  -54.3170 N.am  189  GLU189     -0.1963
    101  CA         4.8590   39.8340  -53.7990 C.3   189  GLU189      0.1733
    102  C          5.4510   39.3170  -52.4920 C.2   189  GLU189      0.2616
    103  O          4.8150   38.5490  -51.7720 O.2   189  GLU189     -0.2715
    104  CB         4.2370   41.2050  -53.5240 C.3   189  GLU189      0.0429
    105  CG         3.7250   41.9610  -54.7350 C.3   189  GLU189      0.1163
    106  CD         3.3840   43.4050  -54.3970 C.2   189  GLU189      0.3649
    107  OE1        2.5370   43.6320  -53.5020 O.co2 189  GLU189     -0.2457
    108  OE2        3.9670   44.3170  -55.0220 O.co2 189  GLU189     -0.2457
    109  N          6.6690   39.7460  -52.1820 N.am  190  ASP190     -0.1957
    110  CA         7.3100   39.3280  -50.9450 C.3   190  ASP190      0.1840
    111  C          6.7280   40.1230  -49.7810 C.2   190  ASP190      0.2622
    112  O          6.2670   41.2510  -49.9540 O.2   190  ASP190     -0.2715
    113  CB         8.8210   39.5670  -51.0170 C.3   190  ASP190      0.1450
    114  CG         9.5290   38.5710  -51.9150 C.2   190  ASP190      0.3671
    115  OD1       10.7250   38.7830  -52.1990 O.co2 190  ASP190     -0.2456
    116  OD2        8.8970   37.5730  -52.3270 O.co2 190  ASP190     -0.2456
    117  N          6.7420   39.5270  -48.5960 N.am  191  LEU191     -0.1964
    118  CA         6.2380   40.2090  -47.4120 C.3   191  LEU191      0.1713
    119  C          7.2960   41.2150  -46.9690 C.2   191  LEU191      0.2458
    120  O          8.4580   41.1270  -47.3770 O.2   191  LEU191     -0.2730
    121  CB         5.9650   39.1990  -46.2930 C.3   191  LEU191      0.0310
    122  CG         4.6800   38.3630  -46.3830 C.3   191  LEU191      0.0022
    123  CD1        4.6070   37.6300  -47.7080 C.3   191  LEU191      0.0001
    124  CD2        4.6420   37.3810  -45.2250 C.3   191  LEU191      0.0001
    125  N          6.9120   42.1930  -46.1380 N.am  192  PRO192     -0.2716
    126  CA         7.9030   43.1740  -45.6900 C.3   192  PRO192      0.1536
    127  C          9.0430   42.4970  -44.9210 C.2   192  PRO192      0.2598
    128  O          8.8390   41.4820  -44.2560 O.2   192  PRO192     -0.2715
    129  CB         7.0800   44.1240  -44.8220 C.3   192  PRO192      0.0310
    130  CG         5.9960   43.2380  -44.2870 C.3   192  PRO192      0.0237
    131  CD         5.6080   42.4270  -45.4950 C.3   192  PRO192      0.0939
    132  N         10.2420   43.0620  -45.0240 N.am  193  ASP193     -0.1972
    133  CA        11.4160   42.5140  -44.3470 C.3   193  ASP193      0.1709
    134  C         11.2180   42.2990  -42.8510 C.2   193  ASP193      0.2293
    135  O         11.7710   41.3620  -42.2710 O.2   193  ASP193     -0.2864
    136  CB        12.6120   43.4430  -44.5570 C.3   193  ASP193      0.1436
    137  CG        13.1020   43.4470  -45.9890 C.2   193  ASP193      0.3671
    138  OD1       13.9600   44.2940  -46.3170 O.co2 193  ASP193     -0.2456
    139  OD2       12.6380   42.6010  -46.7820 O.co2 193  ASP193     -0.2456
    140  N          8.8370   41.0970  -41.3080 N.3   195  PHE195     -0.1227
    141  CA         8.1920   39.8150  -41.0060 C.3   195  PHE195      0.1736
    142  C          9.2290   38.7510  -40.6520 C.2   195  PHE195      0.2596
    143  O          9.2590   38.2460  -39.5260 O.2   195  PHE195     -0.2718
    144  CB         7.3580   39.3340  -42.1990 C.3   195  PHE195      0.0547
    145  CG         6.7050   37.9940  -41.9850 C.ar  195  PHE195     -0.0202
    146  CD1        5.6970   37.8360  -41.0370 C.ar  195  PHE195     -0.0042
    147  CD2        7.1050   36.8870  -42.7270 C.ar  195  PHE195     -0.0042
    148  CE1        5.0980   36.5960  -40.8300 C.ar  195  PHE195     -0.0003
    149  CE2        6.5140   35.6410  -42.5300 C.ar  195  PHE195     -0.0003
    150  CZ         5.5060   35.4960  -41.5770 C.ar  195  PHE195     -0.0000
    151  N         10.0780   38.4090  -41.6150 N.am  196  SER196     -0.1952
    152  CA        11.1080   37.3990  -41.3790 C.3   196  SER196      0.1924
    153  C         12.1050   37.8130  -40.3010 C.2   196  SER196      0.2314
    154  O         12.5020   36.9950  -39.4690 O.2   196  SER196     -0.2863
    155  CB        11.8540   37.0880  -42.6760 C.3   196  SER196      0.2116
    156  OG        11.0450   36.3110  -43.5390 O.3   196  SER196     -0.2180
    157  N         -3.5480   28.7100  -44.8930 N.3   225  ALA225     -0.1231
    158  CA        -3.4760   28.2980  -46.2890 C.3   225  ALA225      0.1694
    159  C         -2.7220   29.3090  -47.1410 C.2   225  ALA225      0.2592
    160  O         -2.5950   29.1440  -48.3530 O.2   225  ALA225     -0.2718
    161  CB        -4.8820   28.0960  -46.8440 C.3   225  ALA225      0.0304
    162  N         -2.2320   30.3670  -46.5100 N.am  226  VAL226     -0.1966
    163  CA        -1.4830   31.3760  -47.2370 C.3   226  VAL226      0.1727
    164  C         -0.0510   31.4290  -46.7180 C.2   226  VAL226      0.2616
    165  O          0.1890   31.6480  -45.5280 O.2   226  VAL226     -0.2715
    166  CB        -2.1360   32.7700  -47.1030 C.3   226  VAL226      0.0290
    167  CG1       -1.2850   33.8110  -47.8160 C.3   226  VAL226      0.0023
    168  CG2       -3.5310   32.7410  -47.7110 C.3   226  VAL226      0.0023
    169  N          0.8960   31.2050  -47.6220 N.am  227  TYR227     -0.1960
    170  CA         2.3090   31.2230  -47.2700 C.3   227  TYR227      0.1756
    171  C          2.9490   32.5330  -47.7190 C.2   227  TYR227      0.2461
    172  O          2.4380   33.2030  -48.6150 O.2   227  TYR227     -0.2730
    173  CB         3.0220   30.0270  -47.9150 C.3   227  TYR227      0.0574
    174  CG         2.6180   28.6980  -47.3190 C.ar  227  TYR227     -0.0198
    175  CD1        1.4250   28.0740  -47.6880 C.ar  227  TYR227     -0.0009
    176  CD2        3.4100   28.0830  -46.3500 C.ar  227  TYR227     -0.0009
    177  CE1        1.0320   26.8680  -47.1020 C.ar  227  TYR227      0.0417
    178  CE2        3.0260   26.8820  -45.7550 C.ar  227  TYR227      0.0417
    179  CZ         1.8390   26.2810  -46.1350 C.ar  227  TYR227      0.1957
    180  OH         1.4600   25.0980  -45.5400 O.3   227  TYR227     -0.2866
    181  N          4.0960   32.9040  -47.1240 N.am  228  PRO228     -0.2727
    182  CA         4.8270   32.1770  -46.0780 C.3   228  PRO228      0.1402
    183  C          4.2960   32.2570  -44.6460 C.2   228  PRO228      0.2269
    184  O          4.8520   31.6310  -43.7520 O.2   228  PRO228     -0.2865
    185  CB         6.2360   32.7530  -46.1910 C.3   228  PRO228      0.0296
    186  CG         5.9660   34.1800  -46.5300 C.3   228  PRO228      0.0237
    187  CD         4.8680   34.0790  -47.5760 C.3   228  PRO228      0.0939
    188  N          3.7600   29.0970  -42.6600 N.3   231  SER231     -0.1217
    189  CA         4.9170   28.2920  -42.2750 C.3   231  SER231      0.1889
    190  C          5.3280   28.5010  -40.8220 C.2   231  SER231      0.2288
    191  O          6.0940   27.7100  -40.2650 O.2   231  SER231     -0.2866
    192  CB         6.1080   28.6100  -43.1800 C.3   231  SER231      0.2089
    193  OG         5.8290   28.2810  -44.5270 O.3   231  SER231     -0.2183
@<TRIPOS>BOND
     1    14    15    2
     2    14    13    1
     3    88    87    2
     4    83    81   ar
     5    83    84   ar
     6    23    24    2
     7    23    22    1
     8    99    98    2
     9    81    79   ar
    10    12    13    1
    11    97    98    1
    12    97    96    1
    13    21    22    1
    14    13    16    1
    15    98   100   am
    16    87    96   am
    17    87    86    1
    18    16    17    1
    19   108   106   ar
    20    22    25    1
    21    84    82   ar
    22   105   106    1
    23   105   104    1
    24    89    86    1
    25    89    90    1
    26    79    78    1
    27    79    80   ar
    28    78    75    1
    29   106   107   ar
    30   100   101    1
    31    86    85    1
    32    20    18   ar
    33    85    76   am
    34   101   104    1
    35   101   102    1
    36    25    26    1
    37    17    18    1
    38    82    80   ar
    39    90    92   ar
    40    90    91   ar
    41    76    75    1
    42    76    77    2
    43    92    94   ar
    44    18    19   ar
    45    75    74    1
    46    91    93   ar
    47    26    28   ar
    48    26    27   ar
    49   102   109   am
    50   102   103    2
    51   116   114   ar
    52    28    30   ar
    53    94    95   ar
    54   115   114   ar
    55    74    69   am
    56   109   110    1
    57    27    29   ar
    58     4     3    2
    59   114   113    1
    60    93    95   ar
    61     2     3    1
    62     2     5    1
    63     2     1    1
    64    30    31   ar
    65     6     5    1
    66     6     7    1
    67    29    31   ar
    68   113   110    1
    69    62    61    2
    70   110   111    1
    71    69    70    2
    72    69    68    1
    73     7     8    1
    74    68    67    1
    75    68    71    1
    76   112   111    2
    77    61    67   am
    78    61    60    1
    79    72    71    1
    80   111   117   am
    81    63    65    1
    82    63    60    1
    83    63    64    1
    84    59    60    1
    85    66    64    1
    86    71    73    1
    87     8     9    2
    88   172   171    2
    89   117   118    1
    90   160   159    2
    91    10     9    1
    92   173   174    1
    93   173   170    1
    94     9    11    1
    95   167   166    1
    96   171   170    1
    97   171   181   am
    98   168   166    1
    99   123   122    1
   100   175   174   ar
   101   175   177   ar
   102   169   170    1
   103   169   164   am
   104   187   181    1
   105   187   186    1
   106   118   119    1
   107   118   121    1
   108   120   119    2
   109   174   176   ar
   110   163   166    1
   111   163   164    1
   112   163   162    1
   113    48    46    1
   114   159   162   am
   115   159   158    1
   116   181   182    1
   117   177   179   ar
   118   119   125   am
   119   161   158    1
   120   139   137   ar
   121   164   165    2
   122   186   185    1
   123    52    51    2
   124   122   121    1
   125   122   124    1
   126   176   178   ar
   127   138   137   ar
   128   158   157    1
   129   185   182    1
   130   125   126    1
   131   125   131    1
   132   179   178   ar
   133   179   180    1
   134   182   183    1
   135   137   136    1
   136    56    58   ar
   137    56    54   ar
   138    58    57   ar
   139   126   127    1
   140   126   129    1
   141    54    53    1
   142    54    55   ar
   143    47    45    1
   144    46    45    1
   145    51    50    1
   146    53    50    1
   147    57    55   ar
   148   131   130    1
   149    50    49    1
   150    45    42    1
   151   132   127   am
   152   132   133    1
   153   127   128    2
   154   129   130    1
   155   183   184    2
   156   136   133    1
   157   193   192    1
   158   133   134    1
   159    35    34    2
   160    42    41    1
   161    42    43    1
   162   156   155    1
   163    44    43    2
   164    39    38    2
   165   192   189    1
   166   134   135    2
   167   147   149   ar
   168   147   145   ar
   169   155   152    1
   170   188   189    1
   171   149   150   ar
   172    34    33    1
   173    36    37    1
   174    36    33    1
   175   189   190    1
   176   144   145    1
   177   144   141    1
   178    38    37    1
   179    38    40   am
   180   145   146   ar
   181    33    32    1
   182   151   152    1
   183   151   142   am
   184   150   148   ar
   185   152   153    1
   186   140   141    1
   187   146   148   ar
   188   141   142    1
   189   190   191    2
   190   142   143    2
   191   153   154    2
