@<TRIPOS>MOLECULE
tmp/1szeB01.pdb
 116 110 0 0 0
SMALL
GASTEIGER

@<TRIPOS>ATOM
      1  N         49.6680   77.5600   26.3100 N.3    44  TYR44      -0.1241
      2  CA        49.1600   76.5340   27.2010 C.3    44  TYR44       0.1605
      3  C         47.6660   76.3000   26.9470 C.2    44  TYR44       0.2264
      4  O         47.1520   75.1930   27.1730 O.2    44  TYR44      -0.2867
      5  CB        49.4490   76.9020   28.6800 C.3    44  TYR44       0.0534
      6  CG        48.8710   75.9090   29.6590 C.ar   44  TYR44      -0.0201
      7  CD1       47.7840   76.2410   30.4620 C.ar   44  TYR44      -0.0009
      8  CD2       49.3760   74.6250   29.7420 C.ar   44  TYR44      -0.0009
      9  CE1       47.2290   75.3280   31.3240 C.ar   44  TYR44       0.0417
     10  CE2       48.8250   73.7010   30.6100 C.ar   44  TYR44       0.0417
     11  CZ        47.7520   74.0660   31.3900 C.ar   44  TYR44       0.1957
     12  OH        47.2040   73.1590   32.2380 O.3    44  TYR44      -0.2866
     13  N         42.6610   73.6070   33.5990 N.3    99  ALA99      -0.1231
     14  CA        43.6170   73.8640   34.6510 C.3    99  ALA99       0.1694
     15  C         44.1970   75.2770   34.5160 C.2    99  ALA99       0.2591
     16  O         44.2660   75.8170   33.4210 O.2    99  ALA99      -0.2718
     17  CB        44.7230   72.8220   34.5800 C.3    99  ALA99       0.0304
     18  N         44.5840   75.8790   35.6370 N.am  100  LEU100     -0.1980
     19  CA        45.5110   77.0230   35.6330 C.3   100  LEU100      0.1596
     20  C         44.9560   78.3630   35.0550 C.2   100  LEU100      0.2287
     21  O         45.6120   79.0480   34.2440 O.2   100  LEU100     -0.2864
     22  CB        46.8230   76.6170   34.9170 C.3   100  LEU100      0.0297
     23  CG        48.0210   76.1450   35.7520 C.3   100  LEU100      0.0022
     24  CD1       48.9500   77.3290   36.0320 C.3   100  LEU100      0.0001
     25  CD2       47.6110   75.4240   37.0480 C.3   100  LEU100      0.0001
     26  N         39.1010   71.7090   37.8860 N.3   129  SER129     -0.1217
     27  CA        40.3670   71.0040   37.6790 C.3   129  SER129      0.1889
     28  C         41.0730   70.6530   39.0230 C.2   129  SER129      0.2288
     29  O         41.1020   71.4590   39.9710 O.2   129  SER129     -0.2866
     30  CB        41.3030   71.8270   36.7440 C.3   129  SER129      0.2089
     31  OG        42.1400   71.0110   35.9130 O.3   129  SER129     -0.2183
     32  N         44.1710   70.3300   38.9200 N.3   131  ALA131     -0.1245
     33  CA        45.1320   71.4040   38.7630 C.3   131  ALA131      0.1562
     34  C         44.3780   72.7200   38.6000 C.2   131  ALA131      0.2260
     35  O         44.4940   73.3800   37.5780 O.2   131  ALA131     -0.2867
     36  CB        46.0540   71.1490   37.5590 C.3   131  ALA131      0.0290
     37  N         42.4250   63.7700   39.2550 N.3   155  TYR155     -0.1241
     38  CA        43.5400   62.8730   38.9580 C.3   155  TYR155      0.1605
     39  C         43.7830   62.0280   40.2130 C.2   155  TYR155      0.2264
     40  O         44.2010   62.5680   41.2570 O.2   155  TYR155     -0.2867
     41  CB        44.7940   63.6680   38.5780 C.3   155  TYR155      0.0534
     42  CG        44.7000   64.2640   37.1930 C.ar  155  TYR155     -0.0201
     43  CD1       44.5790   63.4340   36.0710 C.ar  155  TYR155     -0.0009
     44  CD2       44.6980   65.6430   36.9970 C.ar  155  TYR155     -0.0009
     45  CE1       44.4730   63.9550   34.8020 C.ar  155  TYR155      0.0417
     46  CE2       44.5880   66.1700   35.7370 C.ar  155  TYR155      0.0417
     47  CZ        44.4810   65.3150   34.6390 C.ar  155  TYR155      0.1957
     48  OH        44.3820   65.7990   33.3620 O.3   155  TYR155     -0.2866
     49  N         51.2930   62.7680   30.4550 N.3   187  LEU187     -0.1245
     50  CA        50.8400   64.0490   29.8830 C.3   187  LEU187      0.1561
     51  C         51.2890   64.2240   28.4320 C.2   187  LEU187      0.2260
     52  O         52.4500   63.9840   28.1030 O.2   187  LEU187     -0.2867
     53  CB        51.3200   65.2340   30.7360 C.3   187  LEU187      0.0270
     54  CG        50.2410   65.8340   31.6590 C.3   187  LEU187      0.0019
     55  CD1       49.2410   64.7740   32.1690 C.3   187  LEU187      0.0001
     56  CD2       50.8380   66.6330   32.8470 C.3   187  LEU187      0.0001
     57  N         52.8700   68.9550   23.9630 N.3   190  ARG190     -0.1245
     58  CA        52.2710   70.1650   23.3830 C.3   190  ARG190      0.1563
     59  C         53.3690   71.1030   22.9430 C.2   190  ARG190      0.2260
     60  O         53.8790   71.8520   23.7140 O.2   190  ARG190     -0.2867
     61  CB        51.3220   70.8120   24.3980 C.3   190  ARG190      0.0307
     62  CG        50.1340   69.8720   24.6800 C.3   190  ARG190      0.0489
     63  CD        49.1150   70.3070   25.7320 C.3   190  ARG190      0.2205
     64  NE        49.7220   70.5460   27.0270 N.pl3 190  ARG190     -0.0865
     65  CZ        50.2550   71.7030   27.3930 C.cat 190  ARG190      0.5346
     66  NH1       50.2440   72.7540   26.5640 N.pl3 190  ARG190      0.1354
     67  NH2       50.8070   71.8130   28.5990 N.pl3 190  ARG190      0.1354
     68  N         51.5850   62.9440   40.4820 N.3   203  PHE203     -0.1227
     69  CA        50.2590   63.5750   40.5400 C.3   203  PHE203      0.1736
     70  C         49.1920   62.7420   39.8390 C.2   203  PHE203      0.2595
     71  O         48.0300   62.7120   40.2580 O.2   203  PHE203     -0.2718
     72  CB        50.2820   64.9440   39.8470 C.3   203  PHE203      0.0547
     73  CG        50.9490   66.0290   40.6420 C.ar  203  PHE203     -0.0202
     74  CD1       52.3030   66.3270   40.4360 C.ar  203  PHE203     -0.0042
     75  CD2       50.2190   66.7760   41.5760 C.ar  203  PHE203     -0.0042
     76  CE1       52.9320   67.3430   41.1570 C.ar  203  PHE203     -0.0003
     77  CE2       50.8390   67.7980   42.3130 C.ar  203  PHE203     -0.0003
     78  CZ        52.2040   68.0820   42.1010 C.ar  203  PHE203     -0.0000
     79  N         49.5940   62.1030   38.7430 N.am  204  ILE204     -0.1980
     80  CA        48.6790   61.3380   37.9220 C.3   204  ILE204      0.1595
     81  C         49.2120   59.9380   37.8220 C.2   204  ILE204      0.2287
     82  O         50.2940   59.7200   37.3150 O.2   204  ILE204     -0.2864
     83  CB        48.5520   61.9730   36.5160 C.3   204  ILE204      0.0276
     84  CG1       48.3220   63.4880   36.6290 C.3   204  ILE204      0.0022
     85  CG2       47.4200   61.3120   35.7500 C.3   204  ILE204      0.0022
     86  CD1       48.5940   64.2470   35.3780 C.3   204  ILE204      0.0001
     87  N         40.7160   64.6710   25.7880 N.3   251  HIS251     -0.1241
     88  CA        41.3900   65.7220   26.5330 C.3   251  HIS251      0.1621
     89  C         41.6110   66.9730   25.6970 C.2   251  HIS251      0.2264
     90  O         42.5800   67.6980   25.9270 O.2   251  HIS251     -0.2867
     91  CB        42.7420   65.2140   27.0840 C.3   251  HIS251      0.0745
     92  CG        43.1250   65.8230   28.3980 C.ar  251  HIS251      0.0817
     93  ND1       42.8140   65.2390   29.6040 N.ar  251  HIS251     -0.2268
     94  CD2       43.7840   66.9730   28.6920 C.ar  251  HIS251      0.1154
     95  CE1       43.2670   66.0030   30.5820 C.ar  251  HIS251      0.1986
     96  NE2       43.8600   67.0620   30.0570 N.ar  251  HIS251     -0.2212
     97  N         44.6040   66.9730   23.2260 N.3   254  ARG254     -0.1231
     98  CA        45.8310   67.2380   23.9580 C.3   254  ARG254      0.1694
     99  C         46.5760   65.9810   24.4390 C.2   254  ARG254      0.2591
    100  O         47.7030   66.0880   24.9350 O.2   254  ARG254     -0.2718
    101  CB        45.5340   68.1380   25.1510 C.3   254  ARG254      0.0321
    102  CG        45.2680   69.6180   24.8200 C.3   254  ARG254      0.0489
    103  CD        44.4990   70.3530   25.9250 C.3   254  ARG254      0.2205
    104  NE        45.3580   70.7430   27.0260 N.pl3 254  ARG254     -0.0865
    105  CZ        46.1220   71.8330   27.0360 C.cat 254  ARG254      0.5346
    106  NH1       46.1240   72.6690   26.0060 N.pl3 254  ARG254      0.1354
    107  NH2       46.8760   72.1130   28.0870 N.pl3 254  ARG254      0.1354
    108  N         45.9860   64.8000   24.3010 N.am  255  GLN255     -0.1979
    109  CA        46.7030   63.5780   24.6790 C.3   255  GLN255      0.1601
    110  C         47.1960   62.7490   23.4740 C.2   255  GLN255      0.2287
    111  O         48.3620   62.8600   23.1130 O.2   255  GLN255     -0.2864
    112  CB        45.8730   62.7450   25.6720 C.3   255  GLN255      0.0394
    113  CG        45.7260   63.4250   27.0070 C.3   255  GLN255      0.0908
    114  CD        47.0540   63.8290   27.6180 C.2   255  GLN255      0.2608
    115  OE1       47.8080   62.9790   28.0810 O.2   255  GLN255     -0.2717
    116  NE2       47.3410   65.1320   27.6140 N.am  255  GLN255     -0.0878
@<TRIPOS>BOND
     1    59    58    1
     2    59    60    2
     3   111   110    2
     4    97    98    1
     5    58    57    1
     6    58    61    1
     7   110   109    1
     8    98    99    1
     9    98   101    1
    10   108    99   am
    11   108   109    1
    12    61    62    1
    13    99   100    2
    14   109   112    1
    15    62    63    1
    16   102   101    1
    17   102   103    1
    18   112   113    1
    19    89    90    2
    20    89    88    1
    21    63    64    1
    22    87    88    1
    23   103   104    1
    24   106   105    1
    25     1     2    1
    26    88    91    1
    27    66    65    1
    28     3     4    2
    29     3     2    1
    30   113   114    1
    31   104   105    2
    32    64    65    2
    33   105   107    1
    34    91    92    1
    35     2     5    1
    36    65    67    1
    37   116   114   am
    38   114   115    2
    39    52    51    2
    40    92    94   ar
    41    92    93   ar
    42    51    50    1
    43     5     6    1
    44    94    96   ar
    45    93    95   ar
    46     6     8   ar
    47     6     7   ar
    48     8    10   ar
    49    50    49    1
    50    50    53    1
    51    96    95   ar
    52     7     9   ar
    53    10    11   ar
    54    53    54    1
    55     9    11   ar
    56    11    12    1
    57    54    55    1
    58    54    56    1
    59    48    47    1
    60    16    15    2
    61    13    14    1
    62    21    20    2
    63    15    14    1
    64    15    18   am
    65    17    14    1
    66    47    45   ar
    67    47    46   ar
    68    45    43   ar
    69    22    19    1
    70    22    23    1
    71    20    19    1
    72    86    84    1
    73    19    18    1
    74    46    44   ar
    75    85    83    1
    76    23    24    1
    77    23    25    1
    78    31    30    1
    79    43    42   ar
    80    83    84    1
    81    83    80    1
    82    30    27    1
    83    44    42   ar
    84    42    41    1
    85    82    81    2
    86    36    33    1
    87    35    34    2
    88    27    26    1
    89    27    28    1
    90    81    80    1
    91    80    79    1
    92    41    38    1
    93    34    33    1
    94    79    70   am
    95    33    32    1
    96    38    37    1
    97    38    39    1
    98    28    29    2
    99    70    71    2
   100    70    69    1
   101    72    69    1
   102    72    73    1
   103    39    40    2
   104    74    73   ar
   105    74    76   ar
   106    68    69    1
   107    73    75   ar
   108    76    78   ar
   109    75    77   ar
   110    78    77   ar
