@<TRIPOS>MOLECULE
tmp/1szgB00.pdb
 228 216 0 0 0
SMALL
GASTEIGER

@<TRIPOS>ATOM
      1  N         50.2620   78.1830   26.4880 N.3    42  TYR42      -0.1227
      2  CA        49.6940   77.1940   27.4040 C.3    42  TYR42       0.1736
      3  C         48.2150   76.8700   27.1540 C.2    42  TYR42       0.2595
      4  O         47.7910   75.7590   27.4290 O.2    42  TYR42      -0.2718
      5  CB        49.9160   77.5700   28.8820 C.3    42  TYR42       0.0548
      6  CG        49.4310   76.5000   29.8490 C.ar   42  TYR42      -0.0200
      7  CD1       50.1530   75.3240   30.0380 C.ar   42  TYR42      -0.0009
      8  CD2       48.2350   76.6590   30.5520 C.ar   42  TYR42      -0.0009
      9  CE1       49.6980   74.3340   30.9060 C.ar   42  TYR42       0.0417
     10  CE2       47.7710   75.6840   31.4160 C.ar   42  TYR42       0.0417
     11  CZ        48.5050   74.5270   31.5880 C.ar   42  TYR42       0.1957
     12  OH        48.0510   73.5610   32.4490 O.3    42  TYR42      -0.2866
     13  N         47.4350   77.8260   26.6530 N.am   43  TYR43      -0.1976
     14  CA        45.9970   77.6270   26.4910 C.3    43  TYR43       0.1639
     15  C         45.6590   77.1180   25.1000 C.2    43  TYR43       0.2290
     16  O         44.8600   76.1880   24.9610 O.2    43  TYR43      -0.2864
     17  CB        45.2170   78.9190   26.7480 C.3    43  TYR43       0.0560
     18  CG        45.2090   79.4060   28.1790 C.ar   43  TYR43      -0.0198
     19  CD1       45.6700   78.6060   29.2290 C.ar   43  TYR43      -0.0009
     20  CD2       44.7380   80.6830   28.4870 C.ar   43  TYR43      -0.0009
     21  CE1       45.6590   79.0740   30.5560 C.ar   43  TYR43       0.0417
     22  CE2       44.7250   81.1600   29.8040 C.ar   43  TYR43       0.0417
     23  CZ        45.1790   80.3510   30.8290 C.ar   43  TYR43       0.1957
     24  OH        45.1640   80.8250   32.1200 O.3    43  TYR43      -0.2866
     25  N         43.1320   68.1430   17.8740 N.3    53  HIS53      -0.1241
     26  CA        42.5850   69.3800   18.4000 C.3    53  HIS53       0.1621
     27  C         41.6690   70.0320   17.3570 C.2    53  HIS53       0.2264
     28  O         40.5410   70.4340   17.6700 O.2    53  HIS53      -0.2867
     29  CB        43.7140   70.3280   18.8120 C.3    53  HIS53       0.0745
     30  CG        43.2630   71.7310   19.0830 C.ar   53  HIS53       0.0817
     31  ND1       42.1720   72.0280   19.8750 N.ar   53  HIS53      -0.2268
     32  CD2       43.7560   72.9180   18.6580 C.ar   53  HIS53       0.1154
     33  CE1       42.0140   73.3370   19.9240 C.ar   53  HIS53       0.1986
     34  NE2       42.9630   73.9010   19.1980 N.ar   53  HIS53      -0.2212
     35  N         34.3450   73.0950   31.0270 N.3    94  SER94      -0.1202
     36  CA        35.2430   71.9850   31.3300 C.3    94  SER94       0.2020
     37  C         36.4360   72.4590   32.1450 C.2    94  SER94       0.2619
     38  O         36.7700   73.6410   32.1310 O.2    94  SER94      -0.2717
     39  CB        35.7260   71.2890   30.0610 C.3    94  SER94       0.2103
     40  OG        36.3290   70.0430   30.3890 O.3    94  SER94      -0.2182
     41  N         37.0730   71.5250   32.8470 N.am   95  ALA95      -0.1965
     42  CA        38.1550   71.8490   33.7640 C.3    95  ALA95       0.1728
     43  C         39.4160   72.2300   33.0070 C.2    95  ALA95       0.2617
     44  O         39.7610   71.6480   31.9500 O.2    95  ALA95      -0.2715
     45  CB        38.4170   70.7060   34.7150 C.3    95  ALA95       0.0334
     46  N         40.1150   73.2010   33.5690 N.am   96  THR96      -0.1937
     47  CA        41.1120   73.9260   32.8210 C.3    96  THR96       0.2028
     48  C         42.1350   74.4840   33.8080 C.2    96  THR96       0.2642
     49  O         41.8690   75.4610   34.5380 O.2    96  THR96      -0.2714
     50  CB        40.3710   75.0180   31.9960 C.3    96  THR96       0.1808
     51  OG1       40.4230   74.6860   30.6050 O.3    96  THR96      -0.2208
     52  CG2       41.0590   76.3360   32.0680 C.3    96  THR96       0.0379
     53  N         43.2890   73.8290   33.8660 N.am   97  GLY97      -0.1954
     54  CA        44.3190   74.1890   34.8250 C.3    97  GLY97       0.1869
     55  C         44.9240   75.5750   34.6780 C.2    97  GLY97       0.2309
     56  O         44.9490   76.1300   33.5800 O.2    97  GLY97      -0.2863
     57  N         39.5360   72.1550   38.0330 N.3   127  SER127     -0.1217
     58  CA        40.7560   71.3880   37.8190 C.3   127  SER127      0.1889
     59  C         41.4690   71.0680   39.1300 C.2   127  SER127      0.2288
     60  O         41.6140   71.9420   39.9950 O.2   127  SER127     -0.2866
     61  CB        41.7160   72.1690   36.9070 C.3   127  SER127      0.2089
     62  OG        42.8640   71.3960   36.5770 O.3   127  SER127     -0.2183
     63  N         44.3690   70.8800   38.9960 N.3   129  ALA129     -0.1245
     64  CA        45.5250   71.7180   38.6900 C.3   129  ALA129      0.1562
     65  C         45.1660   73.1990   38.6320 C.2   129  ALA129      0.2260
     66  O         45.8760   73.9960   37.9980 O.2   129  ALA129     -0.2867
     67  CB        46.1570   71.2820   37.3720 C.3   129  ALA129      0.0290
     68  N         37.3140   67.8240   39.0520 N.3   151  GLN151     -0.1245
     69  CA        38.1200   67.0020   38.1600 C.3   151  GLN151      0.1566
     70  C         39.3370   66.5080   38.9300 C.2   151  GLN151      0.2260
     71  O         40.0420   67.2910   39.5820 O.2   151  GLN151     -0.2867
     72  CB        38.5370   67.7870   36.9170 C.3   151  GLN151      0.0367
     73  CG        39.4910   67.0700   35.9740 C.3   151  GLN151      0.0905
     74  CD        40.9440   67.1630   36.4180 C.2   151  GLN151      0.2608
     75  OE1       41.4190   68.2340   36.8220 O.2   151  GLN151     -0.2717
     76  NE2       41.6490   66.0380   36.3550 N.am  151  GLN151     -0.0878
     77  N         42.9010   64.2380   39.0170 N.3   153  TYR153     -0.1241
     78  CA        44.0490   63.4340   38.6140 C.3   153  TYR153      0.1605
     79  C         44.4700   62.6300   39.8330 C.2   153  TYR153      0.2264
     80  O         44.9920   63.2130   40.7880 O.2   153  TYR153     -0.2867
     81  CB        45.2210   64.3270   38.2120 C.3   153  TYR153      0.0534
     82  CG        45.1240   64.9860   36.8540 C.ar  153  TYR153     -0.0201
     83  CD1       44.9130   64.2330   35.6950 C.ar  153  TYR153     -0.0009
     84  CD2       45.2710   66.3670   36.7250 C.ar  153  TYR153     -0.0009
     85  CE1       44.8420   64.8440   34.4460 C.ar  153  TYR153      0.0417
     86  CE2       45.2000   66.9850   35.4820 C.ar  153  TYR153      0.0417
     87  CZ        44.9880   66.2190   34.3480 C.ar  153  TYR153      0.1957
     88  OH        44.9160   66.8380   33.1200 O.3   153  TYR153     -0.2866
     89  N         40.1900   62.0120   35.4170 N.3   179  THR179     -0.1218
     90  CA        40.8330   62.1710   34.1190 C.3   179  THR179      0.1862
     91  C         41.8270   61.0630   33.8460 C.2   179  THR179      0.2287
     92  O         42.7660   60.8580   34.6130 O.2   179  THR179     -0.2866
     93  CB        41.5110   63.5300   34.0250 C.3   179  THR179      0.1770
     94  OG1       40.5170   64.5580   34.1470 O.3   179  THR179     -0.2211
     95  CG2       42.0870   63.7500   32.6300 C.3   179  THR179      0.0375
     96  N         52.3310   63.1440   29.8830 N.3   185  LEU185     -0.1245
     97  CA        52.0140   64.4860   29.4050 C.3   185  LEU185      0.1561
     98  C         52.1210   64.5660   27.9020 C.2   185  LEU185      0.2260
     99  O         53.1580   64.2220   27.3420 O.2   185  LEU185     -0.2867
    100  CB        52.9590   65.5270   30.0170 C.3   185  LEU185      0.0270
    101  CG        52.3730   66.8600   30.5240 C.3   185  LEU185      0.0019
    102  CD1       53.2460   68.0670   30.1450 C.3   185  LEU185      0.0001
    103  CD2       50.9110   67.0890   30.0870 C.3   185  LEU185      0.0001
    104  N         53.3110   69.2750   23.9710 N.3   188  ARG188     -0.1245
    105  CA        52.6830   70.4890   23.4410 C.3   188  ARG188      0.1563
    106  C         53.7510   71.4940   23.0110 C.2   188  ARG188      0.2260
    107  O         54.2600   72.2780   23.7970 O.2   188  ARG188     -0.2867
    108  CB        51.6800   71.0580   24.4540 C.3   188  ARG188      0.0307
    109  CG        50.6190   70.0160   24.8970 C.3   188  ARG188      0.0489
    110  CD        49.9430   70.2990   26.2310 C.3   188  ARG188      0.2205
    111  NE        49.7480   71.7370   26.3680 N.pl3 188  ARG188     -0.0865
    112  CZ        50.2010   72.4800   27.3670 C.cat 188  ARG188      0.5346
    113  NH1       50.8710   71.9440   28.3840 N.pl3 188  ARG188      0.1354
    114  NH2       49.9710   73.7840   27.3440 N.pl3 188  ARG188      0.1354
    115  N         36.5890   60.5740   32.7320 N.3   225  LYS225     -0.1245
    116  CA        36.7920   61.5970   31.7190 C.3   225  LYS225      0.1561
    117  C         37.9850   61.2980   30.8140 C.2   225  LYS225      0.2260
    118  O         39.1060   61.1720   31.2990 O.2   225  LYS225     -0.2867
    119  CB        36.9960   62.9470   32.3810 C.3   225  LYS225      0.0271
    120  CG        37.2620   64.0370   31.3840 C.3   225  LYS225      0.0035
    121  CD        37.1090   65.4200   31.9780 C.3   225  LYS225      0.0206
    122  CE        38.4160   66.1370   31.9040 C.3   225  LYS225      0.1093
    123  NZ        38.4650   67.2760   30.9760 N.3   225  LYS225     -0.1314
    124  N         36.2120   62.1750   25.3630 N.3   247  SER247     -0.1217
    125  CA        37.1630   63.2750   25.3220 C.3   247  SER247      0.1889
    126  C         38.5840   62.8280   25.0230 C.2   247  SER247      0.2288
    127  O         38.9910   61.7330   25.4170 O.2   247  SER247     -0.2866
    128  CB        37.1620   64.0220   26.6490 C.3   247  SER247      0.2089
    129  OG        38.0960   65.0880   26.6430 O.3   247  SER247     -0.2183
    130  N         41.0990   65.3320   25.7710 N.3   249  HIS249     -0.1226
    131  CA        41.7960   66.4100   26.4580 C.3   249  HIS249      0.1752
    132  C         42.0000   67.6490   25.5770 C.2   249  HIS249      0.2596
    133  O         42.9950   68.3640   25.7210 O.2   249  HIS249     -0.2718
    134  CB        43.1410   65.8940   26.9600 C.3   249  HIS249      0.0759
    135  CG        43.5260   66.3760   28.3230 C.ar  249  HIS249      0.0818
    136  ND1       43.5110   65.5540   29.4270 N.ar  249  HIS249     -0.2268
    137  CD2       43.9860   67.5770   28.7520 C.ar  249  HIS249      0.1154
    138  CE1       43.9130   66.2360   30.4850 C.ar  249  HIS249      0.1986
    139  NE2       44.2070   67.4700   30.1050 N.ar  249  HIS249     -0.2212
    140  N         41.0560   67.9090   24.6690 N.am  250  GLY250     -0.1957
    141  CA        41.1440   69.0470   23.7620 C.3   250  GLY250      0.1869
    142  C         42.2910   68.8970   22.7780 C.2   250  GLY250      0.2309
    143  O         42.9570   69.8760   22.4190 O.2   250  GLY250     -0.2863
    144  N         45.0780   67.6200   23.4410 N.3   252  ARG252     -0.1231
    145  CA        46.3190   67.9460   24.1540 C.3   252  ARG252      0.1694
    146  C         47.1000   66.6940   24.5340 C.2   252  ARG252      0.2591
    147  O         48.1050   66.7820   25.2280 O.2   252  ARG252     -0.2718
    148  CB        46.0340   68.7020   25.4510 C.3   252  ARG252      0.0321
    149  CG        45.4170   70.0530   25.3020 C.3   252  ARG252      0.0489
    150  CD        45.3430   70.8230   26.6010 C.3   252  ARG252      0.2205
    151  NE        45.9260   72.1230   26.3430 N.pl3 252  ARG252     -0.0865
    152  CZ        46.6170   72.8550   27.1970 C.cat 252  ARG252      0.5346
    153  NH1       46.8170   72.4850   28.4610 N.pl3 252  ARG252      0.1354
    154  NH2       47.0900   74.0020   26.7650 N.pl3 252  ARG252      0.1354
    155  N         46.6360   65.5270   24.1170 N.am  253  GLN253     -0.1979
    156  CA        47.2750   64.3100   24.5500 C.3   253  GLN253      0.1601
    157  C         47.6760   63.4320   23.3630 C.2   253  GLN253      0.2287
    158  O         48.7330   63.6560   22.7730 O.2   253  GLN253     -0.2864
    159  CB        46.4060   63.5870   25.5810 C.3   253  GLN253      0.0394
    160  CG        46.2910   64.3290   26.9070 C.3   253  GLN253      0.0908
    161  CD        47.5970   64.3710   27.6600 C.2   253  GLN253      0.2608
    162  OE1       48.2000   63.3300   27.9280 O.2   253  GLN253     -0.2717
    163  NE2       48.0490   65.5730   27.9970 N.am  253  GLN253     -0.0878
    164  N         33.1750   66.6520   24.9410 N.3   285  ASP285     -0.1225
    165  CA        33.8630   67.9320   24.7560 C.3   285  ASP285      0.1805
    166  C         34.8050   67.8700   23.5560 C.2   285  ASP285      0.2598
    167  O         34.9320   66.8240   22.9180 O.2   285  ASP285     -0.2718
    168  CB        34.5640   68.4260   26.0450 C.3   285  ASP285      0.1424
    169  CG        35.8350   67.6300   26.4130 C.2   285  ASP285      0.3668
    170  OD1       36.3940   66.8780   25.5840 O.co2 285  ASP285     -0.2456
    171  OD2       36.3560   67.7150   27.5430 O.co2 285  ASP285     -0.2456
    172  N         35.4430   68.9880   23.2410 N.am  286  GLY286     -0.1942
    173  CA        36.3390   69.0550   22.1030 C.3   286  GLY286      0.2014
    174  C         35.7480   69.7860   20.9110 C.2   286  GLY286      0.2639
    175  O         34.7880   69.3350   20.3100 O.2   286  GLY286     -0.2714
    176  N         36.3270   70.9410   20.5950 N.am  287  GLY287     -0.1939
    177  CA        36.0470   71.6530   19.3680 C.3   287  GLY287      0.2014
    178  C         34.7570   72.4410   19.3680 C.2   287  GLY287      0.2639
    179  O         34.4370   73.0940   18.3750 O.2   287  GLY287     -0.2714
    180  N         34.0130   72.3940   20.4650 N.am  288  VAL288     -0.1963
    181  CA        32.6780   72.9760   20.4870 C.3   288  VAL288      0.1727
    182  C         32.8070   74.5030   20.5470 C.2   288  VAL288      0.2616
    183  O         33.4210   75.0360   21.4730 O.2   288  VAL288     -0.2715
    184  CB        31.8270   72.3950   21.6480 C.3   288  VAL288      0.0290
    185  CG1       30.4410   73.0260   21.6850 C.3   288  VAL288      0.0023
    186  CG2       31.7150   70.8710   21.5160 C.3   288  VAL288      0.0023
    187  N         32.2700   75.1840   19.5330 N.am  289  ARG289     -0.1977
    188  CA        32.3460   76.6400   19.4360 C.3   289  ARG289      0.1597
    189  C         31.0020   77.3160   19.0780 C.2   289  ARG289      0.2287
    190  O         30.8760   78.5410   19.1920 O.2   289  ARG289     -0.2864
    191  CB        33.4320   77.1060   18.4290 C.3   289  ARG289      0.0334
    192  CG        34.7490   76.3250   18.3620 C.3   289  ARG289      0.0492
    193  CD        35.8760   76.7860   19.3330 C.3   289  ARG289      0.2205
    194  NE        35.9060   75.8620   20.4590 N.pl3 289  ARG289     -0.0865
    195  CZ        36.9730   75.3080   21.0290 C.cat 289  ARG289      0.5346
    196  NH1       38.2110   75.5840   20.6690 N.pl3 289  ARG289      0.1354
    197  NH2       36.7690   74.4850   22.0230 N.pl3 289  ARG289      0.1354
    198  N         32.9770   72.7380   27.2650 N.3   307  LEU307     -0.1231
    199  CA        33.8650   73.6540   26.5400 C.3   307  LEU307      0.1693
    200  C         34.9860   74.1130   27.4790 C.2   307  LEU307      0.2593
    201  O         34.7440   74.3610   28.6490 O.2   307  LEU307     -0.2718
    202  CB        33.0890   74.8740   25.9970 C.3   307  LEU307      0.0284
    203  CG        32.0630   74.7100   24.8650 C.3   307  LEU307      0.0019
    204  CD1       30.6910   74.2620   25.3710 C.3   307  LEU307      0.0001
    205  CD2       31.9200   76.0000   24.1390 C.3   307  LEU307      0.0001
    206  N         36.2130   74.1990   26.9710 N.am  308  GLY308     -0.1942
    207  CA        37.3250   74.6760   27.7640 C.3   308  GLY308      0.2014
    208  C         37.8260   76.0100   27.2660 C.2   308  GLY308      0.2638
    209  O         37.4290   77.0690   27.7410 O.2   308  GLY308     -0.2714
    210  N         38.7010   75.9410   26.2750 N.am  309  ARG309     -0.1977
    211  CA        39.3270   77.1150   25.6740 C.3   309  ARG309      0.1597
    212  C         38.4050   78.3420   25.4570 C.2   309  ARG309      0.2287
    213  O         38.7860   79.4370   25.8590 O.2   309  ARG309     -0.2864
    214  CB        40.0810   76.7240   24.3880 C.3   309  ARG309      0.0334
    215  CG        41.5640   76.4740   24.6180 C.3   309  ARG309      0.0492
    216  CD        42.3020   75.7110   23.5240 C.3   309  ARG309      0.2205
    217  NE        41.7150   74.3980   23.3280 N.pl3 309  ARG309     -0.0865
    218  CZ        42.3800   73.2600   23.1180 C.cat 309  ARG309      0.5346
    219  NH1       43.7120   73.2120   23.0670 N.pl3 309  ARG309      0.1354
    220  NH2       41.6680   72.1510   22.9410 N.pl3 309  ARG309      0.1354
    221  N         37.8120   79.8450   28.8540 N.3   312  LEU312     -0.1245
    222  CA        39.1300   80.2770   29.2590 C.3   312  LEU312      0.1561
    223  C         39.5030   81.6180   28.6120 C.2   312  LEU312      0.2260
    224  O         40.0230   82.4950   29.2810 O.2   312  LEU312     -0.2867
    225  CB        40.1390   79.2000   28.8870 C.3   312  LEU312      0.0270
    226  CG        41.0730   78.6370   29.9400 C.3   312  LEU312      0.0019
    227  CD1       42.1990   77.9360   29.1940 C.3   312  LEU312      0.0001
    228  CD2       41.6280   79.6980   30.8900 C.3   312  LEU312      0.0001
@<TRIPOS>BOND
     1    27    28    2
     2    27    26    1
     3    25    26    1
     4   192   191    1
     5   192   193    1
     6   179   178    2
     7    26    29    1
     8   191   188    1
     9    32    30   ar
    10    32    34   ar
    11    29    30    1
    12   189   190    2
    13   189   188    1
    14    30    31   ar
    15    34    33   ar
    16   193   194    1
    17   177   178    1
    18   177   176    1
    19   178   180   am
    20   188   187    1
    21   187   182   am
    22    31    33   ar
    23   175   174    2
    24   194   195    2
    25   180   181    1
    26   181   182    1
    27   181   184    1
    28   182   183    2
    29   176   174   am
    30   196   195    1
    31   174   173    1
    32   195   197    1
    33   186   184    1
    34   184   185    1
    35   173   172    1
    36   143   142    2
    37   158   157    2
    38   142   141    1
    39   167   166    2
    40   220   218    1
    41   106   105    1
    42   106   107    2
    43   219   218    1
    44   218   217    2
    45   172   166   am
    46   217   216    1
    47   157   156    1
    48   105   104    1
    49   105   108    1
    50   144   145    1
    51   216   215    1
    52   166   165    1
    53   141   140    1
    54   155   146   am
    55   155   156    1
    56   205   203    1
    57   145   146    1
    58   145   148    1
    59   214   215    1
    60   214   211    1
    61   108   109    1
    62   146   147    2
    63   156   159    1
    64   140   132   am
    65   165   164    1
    66   165   168    1
    67   203   204    1
    68   203   202    1
    69   109   110    1
    70    16    15    2
    71   126   125    1
    72   126   127    2
    73    15    14    1
    74   149   148    1
    75   149   150    1
    76   125   124    1
    77   125   128    1
    78   212   211    1
    79   212   213    2
    80   132   133    2
    81   132   131    1
    82   159   160    1
    83   170   169   ar
    84   211   210    1
    85   130   131    1
    86   202   199    1
    87   168   169    1
    88   110   111    1
    89   210   208   am
    90   151   150    1
    91   151   152    2
    92   111   112    2
    93   169   171   ar
    94   131   134    1
    95     1     2    1
    96    14    13    1
    97    14    17    1
    98   199   198    1
    99   199   200    1
   100   129   128    1
   101    13     3   am
   102    17    18    1
   103   154   152    1
   104   160   161    1
   105   134   135    1
   106   206   200   am
   107   206   207    1
   108     3     2    1
   109     3     4    2
   110   152   153    1
   111   208   209    2
   112   208   207    1
   113    99    98    2
   114   114   112    1
   115   112   113    1
   116     2     5    1
   117   200   201    2
   118   161   162    2
   119   161   163   am
   120    98    97    1
   121    18    20   ar
   122    18    19   ar
   123   135   137   ar
   124   135   136   ar
   125    20    22   ar
   126   223   222    1
   127   223   224    2
   128   137   139   ar
   129   221   222    1
   130     5     6    1
   131   225   222    1
   132   225   226    1
   133   227   226    1
   134    19    21   ar
   135    97    96    1
   136    97   100    1
   137   136   138   ar
   138    22    23   ar
   139     6     7   ar
   140     6     8   ar
   141   226   228    1
   142   100   101    1
   143     7     9   ar
   144    39    40    1
   145    39    36    1
   146   103   101    1
   147   139   138   ar
   148   102   101    1
   149     8    10   ar
   150    21    23   ar
   151    51    50    1
   152   117   118    2
   153   117   116    1
   154    23    24    1
   155     9    11   ar
   156   123   122    1
   157    35    36    1
   158    36    37    1
   159   120   121    1
   160   120   119    1
   161    10    11   ar
   162    11    12    1
   163   116   119    1
   164   116   115    1
   165   122   121    1
   166    44    43    2
   167    50    52    1
   168    50    47    1
   169    38    37    2
   170    37    41   am
   171    95    93    1
   172    47    46    1
   173    47    48    1
   174    41    42    1
   175    43    46   am
   176    43    42    1
   177    88    87    1
   178    56    55    2
   179    42    45    1
   180    48    53   am
   181    48    49    2
   182    91    90    1
   183    91    92    2
   184    53    54    1
   185    93    90    1
   186    93    94    1
   187    90    89    1
   188    87    85   ar
   189    87    86   ar
   190    85    83   ar
   191    55    54    1
   192    86    84   ar
   193    83    82   ar
   194    73    74    1
   195    73    72    1
   196    76    74   am
   197    74    75    2
   198    62    61    1
   199    84    82   ar
   200    82    81    1
   201    61    58    1
   202    72    69    1
   203    67    64    1
   204    58    57    1
   205    58    59    1
   206    66    65    2
   207    69    70    1
   208    69    68    1
   209    81    78    1
   210    78    77    1
   211    78    79    1
   212    65    64    1
   213    64    63    1
   214    70    71    2
   215    59    60    2
   216    79    80    2
