@<TRIPOS>MOLECULE
tmp/1szmB00.pdb
 142 134 0 0 0
SMALL
GASTEIGER

@<TRIPOS>ATOM
      1  N         50.1040   61.1250    5.9890 N.3    34  LYS34      -0.1245
      2  CA        49.0260   61.8210    6.6780 C.3    34  LYS34       0.1561
      3  C         48.0750   60.8860    7.4340 C.2    34  LYS34       0.2260
      4  O         48.0190   59.6810    7.1940 O.2    34  LYS34      -0.2867
      5  CB        48.2440   62.7500    5.7230 C.3    34  LYS34       0.0271
      6  CG        47.1910   62.1200    4.8560 C.3    34  LYS34       0.0035
      7  CD        46.7270   63.1510    3.8160 C.3    34  LYS34       0.0206
      8  CE        45.2360   63.0440    3.4380 C.3    34  LYS34       0.1093
      9  NZ        45.0330   62.8440    1.9500 N.3    34  LYS34      -0.1314
     10  N         44.5830   59.5910    7.7860 N.3    36  LEU36      -0.1231
     11  CA        43.4250   59.4210    6.9200 C.3    36  LEU36       0.1693
     12  C         42.1180   59.6740    7.6430 C.2    36  LEU36       0.2593
     13  O         41.1170   59.9750    7.0180 O.2    36  LEU36      -0.2718
     14  CB        43.4040   57.9970    6.3520 C.3    36  LEU36       0.0284
     15  CG        44.6370   57.6330    5.5060 C.3    36  LEU36       0.0019
     16  CD1       44.6300   56.1470    5.1620 C.3    36  LEU36       0.0001
     17  CD2       44.7020   58.5160    4.2710 C.3    36  LEU36       0.0001
     18  N         42.1220   59.5400    8.9590 N.am   37  GLY37      -0.1942
     19  CA        40.9070   59.5910    9.7340 C.3    37  GLY37       0.2014
     20  C         41.0100   58.7590   10.9900 C.2    37  GLY37       0.2640
     21  O         42.1110   58.4270   11.4590 O.2    37  GLY37      -0.2714
     22  N         39.8530   58.4210   11.5500 N.am   38  THR38      -0.1936
     23  CA        39.8290   57.7290   12.8210 C.3    38  THR38       0.2028
     24  C         38.9320   56.5020   12.8200 C.2    38  THR38       0.2642
     25  O         37.8600   56.5050   12.2390 O.2    38  THR38      -0.2714
     26  CB        39.4260   58.6710   13.9370 C.3    38  THR38       0.1808
     27  OG1       39.5070   57.9560   15.1840 O.3    38  THR38      -0.2208
     28  CG2       37.9680   59.0880   13.8010 C.3    38  THR38       0.0379
     29  N         39.4120   55.4470   13.4690 N.am   39  GLY39      -0.1954
     30  CA        38.7190   54.1860   13.5400 C.3    39  GLY39       0.1869
     31  C         38.1870   54.0420   14.9360 C.2    39  GLY39       0.2309
     32  O         38.2760   54.9690   15.7480 O.2    39  GLY39      -0.2863
     33  N         43.9210   55.8470   11.6090 N.3    44  VAL44      -0.1245
     34  CA        44.4000   55.1710   10.4150 C.3    44  VAL44       0.1561
     35  C         45.2450   56.1590    9.6100 C.2    44  VAL44       0.2260
     36  O         44.7840   57.2720    9.2920 O.2    44  VAL44      -0.2867
     37  CB        43.2550   54.6480    9.5240 C.3    44  VAL44       0.0252
     38  CG1       43.8240   53.9740    8.2680 C.3    44  VAL44       0.0019
     39  CG2       42.4250   53.6420   10.2540 C.3    44  VAL44       0.0019
     40  N         47.6060   51.5610    4.3200 N.3    57  ALA57      -0.1245
     41  CA        46.8860   52.2790    5.3630 C.3    57  ALA57       0.1562
     42  C         47.1430   51.5280    6.7020 C.2    57  ALA57       0.2260
     43  O         46.6960   50.3670    6.8970 O.2    57  ALA57      -0.2867
     44  CB        45.3720   52.3180    5.0330 C.3    57  ALA57       0.0290
     45  N         46.3620   50.9610   10.4280 N.3    59  LYS59      -0.1245
     46  CA        45.3620   51.1530   11.4890 C.3    59  LYS59       0.1561
     47  C         46.0110   50.9300   12.8590 C.2    59  LYS59       0.2260
     48  O         46.6180   49.9090   13.0980 O.2    59  LYS59      -0.2867
     49  CB        44.2240   50.1340   11.3620 C.3    59  LYS59       0.0271
     50  CG        43.6910   49.9120    9.9520 C.3    59  LYS59       0.0035
     51  CD        42.1420   49.8510    9.9160 C.3    59  LYS59       0.0206
     52  CE        41.6190   48.4730   10.1600 C.3    59  LYS59       0.1093
     53  NZ        40.3530   48.6740   10.8860 N.3    59  LYS59      -0.1314
     54  N         39.6020   43.1080    2.0540 N.3    91  VAL91      -0.1245
     55  CA        40.7570   44.0260    2.1500 C.3    91  VAL91       0.1561
     56  C         41.9450   43.2040    2.6510 C.2    91  VAL91       0.2260
     57  O         41.7740   42.4090    3.5770 O.2    91  VAL91      -0.2867
     58  CB        40.5210   45.1960    3.1190 C.3    91  VAL91       0.0252
     59  CG1       41.3780   46.3980    2.7270 C.3    91  VAL91       0.0019
     60  CG2       39.0330   45.6150    3.1790 C.3    91  VAL91       0.0019
     61  N         47.0530   47.6940    6.4440 N.3   107  MET107     -0.1230
     62  CA        46.1890   47.2840    5.3510 C.3   107  MET107      0.1702
     63  C         46.6910   47.8100    4.0210 C.2   107  MET107      0.2592
     64  O         47.4150   48.8120    3.9310 O.2   107  MET107     -0.2718
     65  CB        44.7710   47.7580    5.6090 C.3   107  MET107      0.0401
     66  CG        44.2680   47.4610    7.0040 C.3   107  MET107      0.0596
     67  SD        44.2470   45.6800    7.3680 S.3   107  MET107     -0.1393
     68  CE        42.7500   45.1620    6.6130 C.3   107  MET107      0.0692
     69  N         46.3030   47.1170    2.9660 N.am  108  GLU108     -0.1966
     70  CA        46.4740   47.6610    1.6210 C.3   108  GLU108      0.1733
     71  C         45.7940   49.0410    1.5230 C.2   108  GLU108      0.2616
     72  O         44.7670   49.2940    2.1630 O.2   108  GLU108     -0.2715
     73  CB        45.9660   46.6940    0.5790 C.3   108  GLU108      0.0429
     74  CG        45.1310   47.2900   -0.5270 C.3   108  GLU108      0.1163
     75  CD        44.3540   46.1890   -1.2520 C.2   108  GLU108      0.3649
     76  OE1       43.3100   45.7130   -0.6800 O.co2 108  GLU108     -0.2457
     77  OE2       44.8380   45.7720   -2.3370 O.co2 108  GLU108     -0.2457
     78  N         46.4400   49.9540    0.8110 N.am  109  TYR109     -0.1960
     79  CA        45.8630   51.2680    0.6020 C.3   109  TYR109      0.1771
     80  C         44.8400   51.1140   -0.5140 C.2   109  TYR109      0.2619
     81  O         45.2160   50.8520   -1.6600 O.2   109  TYR109     -0.2715
     82  CB        46.9110   52.2620    0.1870 C.3   109  TYR109      0.0574
     83  CG        46.3470   53.6390   -0.0380 C.ar  109  TYR109     -0.0198
     84  CD1       45.7020   54.3190    0.9800 C.ar  109  TYR109     -0.0009
     85  CD2       46.4690   54.2550   -1.2440 C.ar  109  TYR109     -0.0009
     86  CE1       45.1880   55.5650    0.7930 C.ar  109  TYR109      0.0417
     87  CE2       45.9770   55.4980   -1.4390 C.ar  109  TYR109      0.0417
     88  CZ        45.3260   56.1560   -0.4100 C.ar  109  TYR109      0.1957
     89  OH        44.8550   57.4120   -0.6410 O.3   109  TYR109     -0.2866
     90  N         43.5650   51.1930   -0.1460 N.am  110  ALA110     -0.1964
     91  CA        42.4550   50.9780   -1.0660 C.3   110  ALA110      0.1713
     92  C         41.2310   51.7030   -0.5320 C.2   110  ALA110      0.2458
     93  O         40.3910   51.1130    0.1100 O.2   110  ALA110     -0.2730
     94  CB        42.1770   49.5140   -1.1940 C.3   110  ALA110      0.0333
     95  N         41.1600   53.0070   -0.7520 N.am  111  PRO111     -0.2716
     96  CA        40.0480   53.8040   -0.2330 C.3   111  PRO111      0.1536
     97  C         38.6570   53.4670   -0.8030 C.2   111  PRO111      0.2599
     98  O         38.4850   53.0350   -1.9710 O.2   111  PRO111     -0.2715
     99  CB        40.4310   55.2210   -0.6310 C.3   111  PRO111      0.0310
    100  CG        41.3660   55.0840   -1.6860 C.3   111  PRO111      0.0237
    101  CD        42.1180   53.8310   -1.4970 C.3   111  PRO111      0.0939
    102  N         37.6620   53.6560    0.0530 N.am  112  GLY112     -0.1941
    103  CA        36.2880   53.7030   -0.3990 C.3   112  GLY112      0.2014
    104  C         35.2940   54.1450    0.6580 C.2   112  GLY112      0.2639
    105  O         35.5240   54.0050    1.8700 O.2   112  GLY112     -0.2714
    106  N         34.1550   54.6370    0.1880 N.am  113  GLY113     -0.1939
    107  CA        33.1070   55.1050    1.0750 C.3   113  GLY113      0.2014
    108  C         32.2020   54.0040    1.5490 C.2   113  GLY113      0.2638
    109  O         32.3240   52.8910    1.1000 O.2   113  GLY113     -0.2714
    110  N         31.2710   54.3390    2.4340 N.am  114  GLU114     -0.1977
    111  CA        30.4030   53.3660    3.0510 C.3   114  GLU114      0.1602
    112  C         29.3360   53.0100    2.0730 C.2   114  GLU114      0.2287
    113  O         29.0410   53.7840    1.1900 O.2   114  GLU114     -0.2864
    114  CB        29.7490   53.9340    4.3120 C.3   114  GLU114      0.0415
    115  CG        30.3380   53.4200    5.6180 C.3   114  GLU114      0.1163
    116  CD        29.3360   53.3630    6.7840 C.2   114  GLU114      0.3649
    117  OE1       28.3540   54.1640    6.8120 O.co2 114  GLU114     -0.2457
    118  OE2       29.5460   52.5080    7.6950 O.co2 114  GLU114     -0.2457
    119  N         31.8680   48.3500    1.9810 N.3   159  MET159     -0.1245
    120  CA        32.3700   49.5920    1.4340 C.3   159  MET159      0.1570
    121  C         32.5180   49.4370   -0.0640 C.2   159  MET159      0.2261
    122  O         32.6810   48.3260   -0.5540 O.2   159  MET159     -0.2867
    123  CB        33.7430   49.9100    2.0650 C.3   159  MET159      0.0387
    124  CG        33.8450   49.5980    3.5940 C.3   159  MET159      0.0595
    125  SD        33.1340   50.8340    4.7070 S.3   159  MET159     -0.1393
    126  CE        34.1840   52.0640    4.0250 C.3   159  MET159      0.0692
    127  N         34.2150   45.8330   -0.9920 N.3   167  LYS167     -0.1245
    128  CA        35.1610   45.2490   -0.0560 C.3   167  LYS167      0.1561
    129  C         34.4510   44.9980    1.2460 C.2   167  LYS167      0.2260
    130  O         33.7590   45.8900    1.7500 O.2   167  LYS167     -0.2867
    131  CB        36.4370   46.0960    0.1450 C.3   167  LYS167      0.0271
    132  CG        36.2420   47.5660    0.4650 C.3   167  LYS167      0.0035
    133  CD        37.3980   48.4000   -0.0700 C.3   167  LYS167      0.0206
    134  CE        37.2520   49.8040    0.4000 C.3   167  LYS167      0.1093
    135  NZ        37.3900   49.8640    1.9060 N.3   167  LYS167     -0.1314
    136  N         34.7900   43.9900    5.2530 N.3   169  THR169     -0.1218
    137  CA        35.6480   44.7790    6.1610 C.3   169  THR169      0.1862
    138  C         35.8970   44.2260    7.6120 C.2   169  THR169      0.2287
    139  O         37.0150   44.3740    8.1850 O.2   169  THR169     -0.2866
    140  CB        34.9950   46.1820    6.2000 C.3   169  THR169      0.1770
    141  OG1       35.7580   47.0720    5.3700 O.3   169  THR169     -0.2211
    142  CG2       34.9720   46.7900    7.5810 C.3   169  THR169      0.0375
@<TRIPOS>BOND
     1    77    75   ar
     2    98    97    2
     3   100   101    1
     4   100    99    1
     5    81    80    2
     6   101    95    1
     7    87    85   ar
     8    87    88   ar
     9    75    76   ar
    10    75    74    1
    11    85    83   ar
    12    94    91    1
    13    91    92    1
    14    91    90    1
    15   127   128    1
    16    97    96    1
    17    97   102   am
    18    95    92   am
    19    95    96    1
    20    89    88    1
    21    99    96    1
    22   122   121    2
    23    92    93    2
    24    74    73    1
    25    80    90   am
    26    80    79    1
    27    88    86   ar
    28   103   102    1
    29   103   104    1
    30   133   134    1
    31   133   132    1
    32   121   120    1
    33   128   131    1
    34   128   129    1
    35    83    82    1
    36    83    84   ar
    37   131   132    1
    38    82    79    1
    39   106   104   am
    40   106   107    1
    41   134   135    1
    42    73    70    1
    43    79    78    1
    44   104   105    2
    45    86    84   ar
    46    78    71   am
    47   107   108    1
    48   109   108    2
    49   113   112    2
    50   129   130    2
    51   120   119    1
    52   120   123    1
    53    71    70    1
    54    71    72    2
    55   108   110   am
    56    70    69    1
    57     9     8    1
    58    54    55    1
    59   123   124    1
    60   112   111    1
    61    55    56    1
    62    55    58    1
    63   110   111    1
    64    56    57    2
    65    59    58    1
    66    69    63   am
    67   111   114    1
    68    58    60    1
    69     8     7    1
    70   124   125    1
    71     7     6    1
    72    64    63    2
    73    63    62    1
    74   126   125    1
    75    17    15    1
    76   114   115    1
    77    40    41    1
    78     6     5    1
    79    44    41    1
    80    16    15    1
    81   136   137    1
    82    62    65    1
    83    62    61    1
    84    41    42    1
    85   141   140    1
    86    15    14    1
    87    65    66    1
    88   115   116    1
    89     5     2    1
    90     1     2    1
    91   137   140    1
    92   137   138    1
    93   140   142    1
    94    14    11    1
    95    68    67    1
    96     2     3    1
    97    42    43    2
    98   116   117   ar
    99   116   118   ar
   100    11    12    1
   101    11    10    1
   102    66    67    1
   103    13    12    2
   104     4     3    2
   105   138   139    2
   106    12    18   am
   107    38    37    1
   108    18    19    1
   109    36    35    2
   110    37    39    1
   111    37    34    1
   112    35    34    1
   113    19    20    1
   114    51    50    1
   115    51    52    1
   116    50    49    1
   117    52    53    1
   118    34    33    1
   119    45    46    1
   120    20    21    2
   121    20    22   am
   122    49    46    1
   123    46    47    1
   124    22    23    1
   125    25    24    2
   126    24    23    1
   127    24    29   am
   128    23    26    1
   129    47    48    2
   130    29    30    1
   131    30    31    1
   132    28    26    1
   133    26    27    1
   134    31    32    2
