@<TRIPOS>MOLECULE
tmp/1sznA02.pdb
 122 118 0 0 0
SMALL
GASTEIGER

@<TRIPOS>ATOM
      1  N         -7.5950   35.7630   45.4130 N.3     1  ILE1       -0.1231
      2  CA        -8.7210   36.7860   45.7070 C.3     1  ILE1        0.1692
      3  C         -8.6950   37.9930   44.7730 C.2     1  ILE1        0.2591
      4  O         -7.6340   38.5130   44.4790 O.2     1  ILE1       -0.2718
      5  CB        -8.7210   37.2860   47.2090 C.3     1  ILE1        0.0266
      6  CG1      -10.1150   37.8500   47.5770 C.3     1  ILE1        0.0019
      7  CG2       -7.6790   38.3080   47.4410 C.3     1  ILE1        0.0020
      8  CD1      -10.3300   38.1530   49.0390 C.3     1  ILE1        0.0001
      9  N         -9.8410   38.4580   44.2360 N.am    2  VAL2       -0.1980
     10  CA        -9.8950   39.7040   43.4820 C.3     2  VAL2        0.1595
     11  C         -9.7730   40.9200   44.3380 C.2     2  VAL2        0.2287
     12  O        -10.3240   40.9740   45.4570 O.2     2  VAL2       -0.2864
     13  CB       -11.1750   39.8480   42.5920 C.3     2  VAL2        0.0276
     14  CG1      -11.4780   38.5940   41.8690 C.3     2  VAL2        0.0022
     15  CG2      -12.3530   40.3310   43.3990 C.3     2  VAL2        0.0022
     16  N         -3.6790   40.1300   39.9900 N.3    10  LYS10      -0.1245
     17  CA        -4.2920   39.2240   39.0410 C.3    10  LYS10       0.1561
     18  C         -3.2770   38.2650   38.4310 C.2    10  LYS10       0.2260
     19  O         -3.5160   37.0630   38.3370 O.2    10  LYS10      -0.2867
     20  CB        -5.0560   39.9980   37.9320 C.3    10  LYS10       0.0271
     21  CG        -5.8010   39.1090   37.0130 C.3    10  LYS10       0.0035
     22  CD        -6.6740   39.9040   36.0400 C.3    10  LYS10       0.0206
     23  CE        -7.6090   38.9630   35.3010 C.3    10  LYS10       0.1093
     24  NZ        -8.6410   39.6540   34.3750 N.3    10  LYS10      -0.1314
     25  N         -7.8190   31.1240   47.6230 N.3   215  ASN215     -0.1240
     26  CA        -8.2390   32.0850   46.6320 C.3   215  ASN215      0.1653
     27  C         -9.2840   33.0140   47.2060 C.2   215  ASN215      0.2266
     28  O         -9.3730   34.1390   46.7730 O.2   215  ASN215     -0.2867
     29  CB        -8.7260   31.3910   45.3630 C.3   215  ASN215      0.1155
     30  CG        -8.7820   32.2840   44.1870 C.2   215  ASN215      0.2627
     31  OD1       -8.1050   33.3140   44.1370 O.2   215  ASN215     -0.2716
     32  ND2       -9.5990   31.8860   43.2090 N.am  215  ASN215     -0.0877
     33  N         -3.8620   22.7390   39.9390 N.3   246  ASN246     -0.1225
     34  CA        -5.2440   23.0960   39.7290 C.3   246  ASN246      0.1785
     35  C         -5.7570   24.2010   40.6200 C.2   246  ASN246      0.2598
     36  O         -6.8550   24.7550   40.3670 O.2   246  ASN246     -0.2718
     37  CB        -6.1170   21.8460   39.8270 C.3   246  ASN246      0.1169
     38  CG        -5.9260   20.9340   38.6160 C.2   246  ASN246      0.2627
     39  OD1       -5.8210   21.4080   37.4890 O.2   246  ASN246     -0.2716
     40  ND2       -5.8630   19.6300   38.8490 N.am  246  ASN246     -0.0877
     41  N         -4.9900   24.5730   41.6500 N.am  247  SER247     -0.1938
     42  CA        -5.2660   25.7380   42.4840 C.3   247  SER247      0.2055
     43  C         -4.7700   27.0930   41.9220 C.2   247  SER247      0.2643
     44  O         -5.0730   28.1380   42.5190 O.2   247  SER247     -0.2714
     45  CB        -4.6900   25.4590   43.8990 C.3   247  SER247      0.2130
     46  OG        -5.1300   24.1650   44.3320 O.3   247  SER247     -0.2179
     47  N         -4.0400   27.0430   40.7890 N.am  248  VAL248     -0.1963
     48  CA        -3.3510   28.2060   40.2420 C.3   248  VAL248      0.1727
     49  C         -4.1380   28.8020   39.0610 C.2   248  VAL248      0.2616
     50  O         -4.3670   28.1210   38.0550 O.2   248  VAL248     -0.2715
     51  CB        -1.9970   27.8320   39.7300 C.3   248  VAL248      0.0290
     52  CG1       -1.2230   29.1010   39.2460 C.3   248  VAL248      0.0023
     53  CG2       -1.2290   27.0480   40.7920 C.3   248  VAL248      0.0023
     54  N         -4.5310   30.0600   39.1800 N.am  249  ASP249     -0.1957
     55  CA        -5.2040   30.7930   38.0790 C.3   249  ASP249      0.1840
     56  C         -5.1270   32.2590   38.4610 C.2   249  ASP249      0.2622
     57  O         -4.4360   32.6310   39.4140 O.2   249  ASP249     -0.2715
     58  CB        -6.6700   30.2870   37.9670 C.3   249  ASP249      0.1450
     59  CG        -7.2840   30.4310   36.6020 C.2   249  ASP249      0.3671
     60  OD1       -7.9890   29.4590   36.1590 O.co2 249  ASP249     -0.2456
     61  OD2       -7.1500   31.4420   35.9360 O.co2 249  ASP249     -0.2456
     62  N         -5.8260   33.1210   37.7270 N.am  250  PHE250     -0.1960
     63  CA        -5.8740   34.5300   38.0280 C.3   250  PHE250      0.1771
     64  C         -6.2090   34.8100   39.4760 C.2   250  PHE250      0.2620
     65  O         -7.0440   34.1410   40.0860 O.2   250  PHE250     -0.2715
     66  CB        -6.8440   35.2740   37.1130 C.3   250  PHE250      0.0574
     67  CG        -6.4180   35.3340   35.6540 C.ar  250  PHE250     -0.0200
     68  CD1       -5.1900   35.8590   35.2870 C.ar  250  PHE250     -0.0042
     69  CD2       -7.2310   34.8550   34.6620 C.ar  250  PHE250     -0.0042
     70  CE1       -4.8170   35.9150   33.9650 C.ar  250  PHE250     -0.0003
     71  CE2       -6.8860   34.8970   33.3470 C.ar  250  PHE250     -0.0003
     72  CZ        -5.6780   35.4200   32.9760 C.ar  250  PHE250     -0.0000
     73  N         -5.5170   35.7960   40.0710 N.am  251  TRP251     -0.1960
     74  CA        -5.7960   36.2950   41.3920 C.3   251  TRP251      0.1771
     75  C         -5.4070   35.3720   42.5610 C.2   251  TRP251      0.2620
     76  O         -5.6140   35.7300   43.7090 O.2   251  TRP251     -0.2715
     77  CB        -7.2590   36.6990   41.5600 C.3   251  TRP251      0.0590
     78  CG        -7.7960   37.7730   40.6600 C.ar  251  TRP251      0.0006
     79  CD1       -8.6400   37.6030   39.5710 C.ar  251  TRP251      0.0946
     80  CD2       -7.5480   39.1760   40.7630 C.ar  251  TRP251      0.0152
     81  NE1       -8.9120   38.8350   39.0100 N.ar  251  TRP251     -0.2442
     82  CE2       -8.2700   39.8150   39.7170 C.ar  251  TRP251      0.0810
     83  CE3       -6.7980   39.9710   41.6280 C.ar  251  TRP251      0.0012
     84  CZ2       -8.2480   41.1820   39.5390 C.ar  251  TRP251      0.0191
     85  CZ3       -6.7800   41.3670   41.4420 C.ar  251  TRP251      0.0001
     86  CH2       -7.5070   41.9390   40.4070 C.ar  251  TRP251      0.0015
     87  N         -4.8310   34.2100   42.2530 N.am  252  GLY252     -0.1954
     88  CA        -4.6140   33.2070   43.2820 C.3   252  GLY252      0.1869
     89  C         -3.5280   32.2420   42.8440 C.2   252  GLY252      0.2309
     90  O         -3.8110   31.2740   42.1590 O.2   252  GLY252     -0.2863
     91  N         -2.1680   37.8650   30.5950 N.3   314  SER314     -0.1202
     92  CA        -3.4090   38.4600   31.0560 C.3   314  SER314      0.2020
     93  C         -4.6550   37.8140   30.4250 C.2   314  SER314      0.2618
     94  O         -5.7780   38.2590   30.7110 O.2   314  SER314     -0.2717
     95  CB        -3.4490   39.9700   30.7070 C.3   314  SER314      0.2103
     96  OG        -3.4860   40.1200   29.2860 O.3   314  SER314     -0.2182
     97  N         -4.4400   36.8010   29.6020 N.am  315  VAL315     -0.1979
     98  CA        -5.4960   36.0480   28.9320 C.3   315  VAL315      0.1595
     99  C         -5.5900   34.5810   29.4180 C.2   315  VAL315      0.2287
    100  O         -6.6950   34.0840   29.6440 O.2   315  VAL315     -0.2864
    101  CB        -5.2870   36.0950   27.4160 C.3   315  VAL315      0.0276
    102  CG1       -6.1960   35.0970   26.6970 C.3   315  VAL315      0.0022
    103  CG2       -5.4890   37.4960   26.9290 C.3   315  VAL315      0.0022
    104  N         -4.9430   32.2290   32.4380 N.3   317  GLY317     -0.1210
    105  CA        -4.6340   32.2640   33.8720 C.3   317  GLY317      0.1956
    106  C         -3.8590   31.0620   34.3840 C.2   317  GLY317      0.2611
    107  O         -3.1050   31.2180   35.3380 O.2   317  GLY317     -0.2717
    108  N         -4.0220   29.8820   33.7840 N.am  318  GLN318     -0.1979
    109  CA        -3.4150   28.6650   34.2630 C.3   318  GLN318      0.1601
    110  C         -1.9360   28.6310   33.9640 C.2   318  GLN318      0.2287
    111  O         -1.4370   29.2590   33.0080 O.2   318  GLN318     -0.2864
    112  CB        -4.1280   27.4530   33.6590 C.3   318  GLN318      0.0394
    113  CG        -5.5960   27.4500   34.0070 C.3   318  GLN318      0.0908
    114  CD        -5.9500   26.5520   35.1730 C.2   318  GLN318      0.2608
    115  OE1       -5.0770   26.1290   35.9720 O.2   318  GLN318     -0.2717
    116  NE2       -7.2440   26.2410   35.2810 N.am  318  GLN318     -0.0878
    117  N         -0.5500   33.7080   25.1340 N.3   347  SER347     -0.1217
    118  CA        -0.7950   34.6260   24.0100 C.3   347  SER347      0.1889
    119  C          0.2760   34.4800   22.9660 C.2   347  SER347      0.2288
    120  O          0.0100   34.6780   21.7820 O.2   347  SER347     -0.2866
    121  CB        -0.8690   36.0690   24.5350 C.3   347  SER347      0.2089
    122  OG        -2.0890   36.1980   25.2930 O.3   347  SER347     -0.2183
@<TRIPOS>BOND
     1   120   119    2
     2   119   118    1
     3   118   121    1
     4   118   117    1
     5   121   122    1
     6   102   101    1
     7   103   101    1
     8   101    98    1
     9    98    99    1
    10    98    97    1
    11    96    95    1
    12    99   100    2
    13    97    93   am
    14    93    94    2
    15    93    92    1
    16    91    92    1
    17    95    92    1
    18   104   105    1
    19    72    71   ar
    20    72    70   ar
    21   111   110    2
    22    71    69   ar
    23   112   113    1
    24   112   109    1
    25   108   109    1
    26   108   106   am
    27   105   106    1
    28   110   109    1
    29    70    68   ar
    30   113   114    1
    31    24    23    1
    32   106   107    2
    33    69    67   ar
    34   114   116   am
    35   114   115    2
    36    68    67   ar
    37    23    22    1
    38    67    66    1
    39    61    59   ar
    40    22    21    1
    41    60    59   ar
    42    59    58    1
    43    21    20    1
    44    66    63    1
    45    39    38    2
    46    62    63    1
    47    62    56   am
    48    20    17    1
    49    58    55    1
    50    63    64    1
    51    50    49    2
    52    55    56    1
    53    55    54    1
    54    19    18    2
    55    18    17    1
    56    56    57    2
    57    38    40   am
    58    38    37    1
    59    81    79   ar
    60    81    82   ar
    61    17    16    1
    62    49    54   am
    63    49    48    1
    64    52    51    1
    65    64    73   am
    66    64    65    2
    67    84    82   ar
    68    84    86   ar
    69    79    78   ar
    70    82    80   ar
    71    34    37    1
    72    34    33    1
    73    34    35    1
    74    51    48    1
    75    51    53    1
    76    73    74    1
    77    48    47    1
    78    36    35    2
    79    86    85   ar
    80    35    41   am
    81    78    80   ar
    82    78    77    1
    83    80    83   ar
    84    47    43   am
    85    74    77    1
    86    74    75    1
    87    85    83   ar
    88    41    42    1
    89    14    13    1
    90    43    42    1
    91    43    44    2
    92    90    89    2
    93    87    75   am
    94    87    88    1
    95    42    45    1
    96    75    76    2
    97    13    15    1
    98    13    10    1
    99    89    88    1
   100    32    30   am
   101    10     9    1
   102    10    11    1
   103    45    46    1
   104    31    30    2
   105    30    29    1
   106     9     3   am
   107    11    12    2
   108     4     3    2
   109     3     2    1
   110    29    26    1
   111     1     2    1
   112     2     5    1
   113    26    27    1
   114    26    25    1
   115    28    27    2
   116     5     7    1
   117     5     6    1
   118     6     8    1
