@<TRIPOS>MOLECULE
tmp/1sznA01.pdb
 125 126 0 0 0
SMALL
GASTEIGER

@<TRIPOS>ATOM
      1  N          4.9190    7.3170   47.9810 N.3   157  ASN157     -0.1240
      2  CA         4.2640    8.2330   47.0990 C.3   157  ASN157      0.1653
      3  C          3.6310    9.4460   47.7970 C.2   157  ASN157      0.2266
      4  O          2.6250    9.9660   47.3300 O.2   157  ASN157     -0.2867
      5  CB         3.1970    7.4910   46.3130 C.3   157  ASN157      0.1155
      6  CG         2.7550    8.2220   45.0960 C.2   157  ASN157      0.2627
      7  OD1        3.5910    8.7700   44.3320 O.2   157  ASN157     -0.2716
      8  ND2        1.4170    8.2260   44.8840 N.am  157  ASN157     -0.0877
      9  N          2.0270    9.6440   50.6160 N.3   159  THR159     -0.1218
     10  CA         0.7010    9.4210   51.1850 C.3   159  THR159      0.1862
     11  C          0.7380    9.5830   52.7060 C.2   159  THR159      0.2287
     12  O          1.7300    9.3190   53.3460 O.2   159  THR159     -0.2866
     13  CB         0.1910    8.0190   50.8790 C.3   159  THR159      0.1770
     14  OG1        1.1870    7.0840   51.2610 O.3   159  THR159     -0.2211
     15  CG2        0.0360    7.8100   49.3960 C.3   159  THR159      0.0375
     16  N          3.9440   20.2740   41.6310 N.3   242  SER242     -0.1202
     17  CA         3.5020   19.5950   40.4210 C.3   242  SER242      0.2020
     18  C          2.1590   18.9060   40.6190 C.2   242  SER242      0.2619
     19  O          1.4990   18.6900   39.6120 O.2   242  SER242     -0.2717
     20  CB         4.5240   18.6250   39.8940 C.3   242  SER242      0.2103
     21  OG         4.6670   17.4810   40.7240 O.3   242  SER242     -0.2182
     22  N          1.7810   18.6280   41.8540 N.am  243  PHE243     -0.1961
     23  CA         0.4790   17.9970   42.1660 C.3   243  PHE243      0.1771
     24  C         -0.6150   18.9720   42.5490 C.2   243  PHE243      0.2619
     25  O         -1.7820   18.5380   42.7720 O.2   243  PHE243     -0.2715
     26  CB         0.6820   16.9350   43.2790 C.3   243  PHE243      0.0574
     27  CG         1.5380   15.7940   42.7950 C.ar  243  PHE243     -0.0200
     28  CD1        0.9980   14.7140   42.0750 C.ar  243  PHE243     -0.0042
     29  CD2        2.8970   15.8010   43.0340 C.ar  243  PHE243     -0.0042
     30  CE1        1.8310   13.6970   41.6390 C.ar  243  PHE243     -0.0003
     31  CE2        3.7330   14.7870   42.5800 C.ar  243  PHE243     -0.0003
     32  CZ         3.1710   13.7030   41.8660 C.ar  243  PHE243     -0.0000
     33  N         -0.2720   20.2820   42.6340 N.am  244  LYS244     -0.1963
     34  CA        -1.1840   21.2720   43.1910 C.3   244  LYS244      0.1728
     35  C         -1.5630   22.4040   42.2170 C.2   244  LYS244      0.2616
     36  O         -2.0510   23.4540   42.6450 O.2   244  LYS244     -0.2715
     37  CB        -0.5800   21.8700   44.4950 C.3   244  LYS244      0.0311
     38  CG        -0.3180   20.8430   45.5690 C.3   244  LYS244      0.0038
     39  CD        -1.6770   20.3940   46.1760 C.3   244  LYS244      0.0206
     40  CE        -1.5640   19.3240   47.1980 C.3   244  LYS244      0.1093
     41  NZ        -3.0040   18.8440   47.3220 N.3   244  LYS244     -0.1314
     42  N         -1.3700   22.1820   40.9220 N.am  245  LEU245     -0.1963
     43  CA        -1.4890   23.2520   39.9580 C.3   245  LEU245      0.1728
     44  C         -2.9040   23.5990   39.5830 C.2   245  LEU245      0.2616
     45  O         -3.1390   24.6090   38.9900 O.2   245  LEU245     -0.2715
     46  CB        -0.6690   22.9380   38.7090 C.3   245  LEU245      0.0311
     47  CG         0.8350   22.7770   39.0060 C.3   245  LEU245      0.0022
     48  CD1        1.5060   22.0770   37.9010 C.3   245  LEU245      0.0001
     49  CD2        1.4770   24.1160   39.3540 C.3   245  LEU245      0.0001
     50  N         -3.8620   22.7390   39.9390 N.am  246  ASN246     -0.1972
     51  CA        -5.2440   23.0960   39.7290 C.3   246  ASN246      0.1688
     52  C         -5.7570   24.2010   40.6200 C.2   246  ASN246      0.2292
     53  O         -6.8550   24.7550   40.3670 O.2   246  ASN246     -0.2864
     54  CB        -6.1170   21.8460   39.8270 C.3   246  ASN246      0.1181
     55  CG        -5.9260   20.9340   38.6160 C.2   246  ASN246      0.2629
     56  OD1       -5.8210   21.4080   37.4890 O.2   246  ASN246     -0.2716
     57  ND2       -5.8630   19.6300   38.8490 N.am  246  ASN246     -0.0877
     58  N          1.7730   22.9810   33.0620 N.3   321  THR321     -0.1204
     59  CA         1.5640   21.7470   33.8540 C.3   321  THR321      0.1979
     60  C          2.3420   20.5710   33.2960 C.2   321  THR321      0.2459
     61  O          2.6920   20.5250   32.1190 O.2   321  THR321     -0.2732
     62  CB         0.0470   21.4640   33.8940 C.3   321  THR321      0.1783
     63  OG1       -0.4810   21.3810   32.5510 O.3   321  THR321     -0.2211
     64  CG2       -0.6580   22.5500   34.5970 C.3   321  THR321      0.0376
     65  N          2.6430   19.5790   34.1480 N.am  322  PRO322     -0.2728
     66  CA         3.3720   18.3980   33.7030 C.3   322  PRO322      0.1401
     67  C          2.5100   17.5570   32.7750 C.2   322  PRO322      0.2269
     68  O          1.3710   17.1730   33.1300 O.2   322  PRO322     -0.2865
     69  CB         3.6950   17.6690   34.9990 C.3   322  PRO322      0.0296
     70  CG         2.6340   18.1270   35.9240 C.3   322  PRO322      0.0237
     71  CD         2.3100   19.5470   35.5880 C.3   322  PRO322      0.0939
     72  N          5.8870   12.5900   33.2460 N.3   325  TRP325     -0.1241
     73  CA         6.8670   12.6020   34.3390 C.3   325  TRP325      0.1605
     74  C          8.2810   12.2770   33.8650 C.2   325  TRP325      0.2264
     75  O          9.2780   12.9090   34.2900 O.2   325  TRP325     -0.2867
     76  CB         6.4330   11.7070   35.5140 C.3   325  TRP325      0.0550
     77  CG         5.7640   12.4720   36.5840 C.ar  325  TRP325      0.0003
     78  CD1        6.2280   12.6230   37.8580 C.ar  325  TRP325      0.0946
     79  CD2        4.5270   13.2200   36.5200 C.ar  325  TRP325      0.0152
     80  NE1        5.3600   13.3920   38.5780 N.ar  325  TRP325     -0.2442
     81  CE2        4.3130   13.7840   37.8060 C.ar  325  TRP325      0.0810
     82  CE3        3.5910   13.4630   35.5450 C.ar  325  TRP325      0.0012
     83  CZ2        3.1970   14.5700   38.1180 C.ar  325  TRP325      0.0191
     84  CZ3        2.4780   14.2380   35.8420 C.ar  325  TRP325      0.0001
     85  CH2        2.2950   14.7910   37.1380 C.ar  325  TRP325      0.0015
     86  N          3.8870    8.5210   35.2190 N.3   330  ASP330     -0.1225
     87  CA         3.1040    9.7280   35.4380 C.3   330  ASP330      0.1805
     88  C          2.4470    9.7350   36.8150 C.2   330  ASP330      0.2598
     89  O          1.9590    8.6980   37.3070 O.2   330  ASP330     -0.2718
     90  CB         2.0570    9.9600   34.3860 C.3   330  ASP330      0.1424
     91  CG         2.6630   10.2130   33.0140 C.2   330  ASP330      0.3668
     92  OD1        1.9090   10.0700   32.0300 O.co2 330  ASP330     -0.2456
     93  OD2        3.8540   10.5300   32.8440 O.co2 330  ASP330     -0.2456
     94  N          2.4470   10.9210   37.4130 N.am  331  TRP331     -0.1962
     95  CA         1.9240   11.1930   38.7420 C.3   331  TRP331      0.1771
     96  C          2.6640   10.4780   39.8880 C.2   331  TRP331      0.2620
     97  O          2.0480   10.1020   40.8940 O.2   331  TRP331     -0.2715
     98  CB         0.4180   10.9240   38.7950 C.3   331  TRP331      0.0590
     99  CG        -0.3510   11.8270   37.8900 C.ar  331  TRP331      0.0006
    100  CD1       -0.5710   13.1590   38.0480 C.ar  331  TRP331      0.0946
    101  CD2       -0.9810   11.4700   36.6710 C.ar  331  TRP331      0.0152
    102  NE1       -1.3070   13.6590   37.0140 N.ar  331  TRP331     -0.2442
    103  CE2       -1.5790   12.6450   36.1470 C.ar  331  TRP331      0.0810
    104  CE3       -1.1210   10.2770   35.9640 C.ar  331  TRP331      0.0012
    105  CZ2       -2.2900   12.6590   34.9610 C.ar  331  TRP331      0.0191
    106  CZ3       -1.8350   10.3090   34.7720 C.ar  331  TRP331      0.0001
    107  CH2       -2.4060   11.4940   34.2920 C.ar  331  TRP331      0.0015
    108  N          3.9650   10.3000   39.7650 N.am  332  THR332     -0.1937
    109  CA         4.7820    9.7220   40.7970 C.3   332  THR332      0.2028
    110  C          5.3340   10.8480   41.6680 C.2   332  THR332      0.2642
    111  O          6.0800   11.6940   41.1860 O.2   332  THR332     -0.2714
    112  CB         5.9440    8.9680   40.1970 C.3   332  THR332      0.1808
    113  OG1        5.4390    7.8470   39.4640 O.3   332  THR332     -0.2208
    114  CG2        6.8390    8.3440   41.2510 C.3   332  THR332      0.0379
    115  N          4.9410   10.8470   42.9410 N.am  333  PHE333     -0.1973
    116  CA         5.5400   11.7660   43.9200 C.3   333  PHE333      0.1639
    117  C          6.9370   11.3140   44.2880 C.2   333  PHE333      0.2290
    118  O          7.1500   10.2180   44.8320 O.2   333  PHE333     -0.2864
    119  CB         4.6440   11.8430   45.1580 C.3   333  PHE333      0.0560
    120  CG         5.0890   12.8460   46.1940 C.ar  333  PHE333     -0.0200
    121  CD1        6.1020   12.5520   47.0650 C.ar  333  PHE333     -0.0042
    122  CD2        4.4590   14.0750   46.2670 C.ar  333  PHE333     -0.0042
    123  CE1        6.5100   13.4860   48.0400 C.ar  333  PHE333     -0.0003
    124  CE2        4.8700   15.0170   47.2440 C.ar  333  PHE333     -0.0003
    125  CZ         5.8830   14.7040   48.0960 C.ar  333  PHE333     -0.0000
@<TRIPOS>BOND
     1    92    91   ar
     2    61    60    2
     3    63    62    1
     4    67    68    2
     5    67    66    1
     6    93    91   ar
     7    91    90    1
     8    58    59    1
     9    72    73    1
    10    60    59    1
    11    60    65   am
    12    66    65    1
    13    66    69    1
    14    59    62    1
    15    74    75    2
    16    74    73    1
    17    62    64    1
    18    65    71    1
    19   107   106   ar
    20   107   105   ar
    21    73    76    1
    22    90    87    1
    23   106   104   ar
    24   105   103   ar
    25    69    70    1
    26    86    87    1
    27    87    88    1
    28    76    77    1
    29    82    84   ar
    30    82    79   ar
    31    71    70    1
    32    84    85   ar
    33   104   101   ar
    34   103   101   ar
    35   103   102   ar
    36    79    77   ar
    37    79    81   ar
    38    77    78   ar
    39   101    99   ar
    40    88    89    2
    41    88    94   am
    42   102   100   ar
    43    85    83   ar
    44    94    95    1
    45    56    55    2
    46    81    83   ar
    47    81    80   ar
    48    78    80   ar
    49    99   100   ar
    50    99    98    1
    51    48    47    1
    52    55    57   am
    53    55    54    1
    54    46    47    1
    55    46    43    1
    56    95    98    1
    57    95    96    1
    58    45    44    2
    59    47    49    1
    60   113   112    1
    61    44    50   am
    62    44    43    1
    63    19    18    2
    64    51    54    1
    65    51    50    1
    66    51    52    1
    67   108    96   am
    68   108   109    1
    69    96    97    2
    70    20    17    1
    71    20    21    1
    72    43    42    1
    73   112   109    1
    74   112   114    1
    75    53    52    2
    76    17    18    1
    77    17    16    1
    78    18    22   am
    79   109   110    1
    80    42    35   am
    81   111   110    2
    82    30    32   ar
    83    30    28   ar
    84   110   115   am
    85    22    23    1
    86    32    31   ar
    87    28    27   ar
    88    23    24    1
    89    23    26    1
    90    35    36    2
    91    35    34    1
    92    24    33   am
    93    24    25    2
    94    31    29   ar
    95    33    34    1
    96    27    29   ar
    97    27    26    1
    98   115   116    1
    99    34    37    1
   100   116   117    1
   101   116   119    1
   102   117   118    2
   103     7     6    2
   104    37    38    1
   105     8     6   am
   106     6     5    1
   107   119   120    1
   108    38    39    1
   109    39    40    1
   110   120   122   ar
   111   120   121   ar
   112   122   124   ar
   113     5     2    1
   114   121   123   ar
   115     2     3    1
   116     2     1    1
   117    40    41    1
   118   124   125   ar
   119     4     3    2
   120   123   125   ar
   121    15    13    1
   122     9    10    1
   123    13    10    1
   124    13    14    1
   125    10    11    1
   126    11    12    2
