@<TRIPOS>MOLECULE
tmp/1szoD00.pdb
 138 133 0 0 0
SMALL
GASTEIGER

@<TRIPOS>ATOM
      1  N        -23.1750  -26.8140   43.3380 N.3    39  TRP39      -0.1241
      2  CA       -22.1100  -26.2370   44.1500 C.3    39  TRP39       0.1605
      3  C        -22.1450  -26.8590   45.5380 C.2    39  TRP39       0.2264
      4  O        -23.1740  -26.8570   46.2010 O.2    39  TRP39      -0.2867
      5  CB       -22.2660  -24.6990   44.2350 C.3    39  TRP39       0.0550
      6  CG       -21.0510  -24.0330   44.7150 C.ar   39  TRP39       0.0003
      7  CD1      -20.9020  -23.3470   45.8800 C.ar   39  TRP39       0.0946
      8  CD2      -19.7820  -24.0140   44.0750 C.ar   39  TRP39       0.0152
      9  NE1      -19.6070  -22.9060   45.9970 N.ar   39  TRP39      -0.2442
     10  CE2      -18.9100  -23.2850   44.8860 C.ar   39  TRP39       0.0810
     11  CE3      -19.3020  -24.5110   42.8550 C.ar   39  TRP39       0.0012
     12  CZ2      -17.5680  -23.0780   44.5480 C.ar   39  TRP39       0.0191
     13  CZ3      -17.9750  -24.3220   42.5300 C.ar   39  TRP39       0.0001
     14  CH2      -17.1390  -23.5830   43.3580 C.ar   39  TRP39       0.0015
     15  N        -15.9800  -27.0190   45.6050 N.3    44  HIS44      -0.1241
     16  CA       -15.1720  -25.8370   45.9380 C.3    44  HIS44       0.1621
     17  C        -13.7410  -26.2390   46.2500 C.2    44  HIS44       0.2264
     18  O        -12.7800  -25.7110   45.6740 O.2    44  HIS44      -0.2867
     19  CB       -15.8790  -25.0970   47.0750 C.3    44  HIS44       0.0745
     20  CG       -15.0440  -24.0890   47.7900 C.ar   44  HIS44       0.0817
     21  ND1      -15.3530  -22.7420   47.8030 N.ar   44  HIS44      -0.2268
     22  CD2      -13.9830  -24.2400   48.6090 C.ar   44  HIS44       0.1154
     23  CE1      -14.4830  -22.1080   48.5730 C.ar   44  HIS44       0.1986
     24  NE2      -13.6490  -22.9920   49.0850 N.ar   44  HIS44      -0.2212
     25  N        -27.0450  -24.9500   44.3800 N.3    76  ILE76      -0.1245
     26  CA       -26.1360  -25.0680   45.5110 C.3    76  ILE76       0.1561
     27  C        -26.7470  -25.9620   46.5750 C.2    76  ILE76       0.2260
     28  O        -27.9420  -25.9930   46.7450 O.2    76  ILE76      -0.2867
     29  CB       -25.8070  -23.6670   46.0790 C.3    76  ILE76       0.0252
     30  CG1      -24.8170  -23.7690   47.2260 C.3    76  ILE76       0.0019
     31  CG2      -27.1310  -22.8810   46.4270 C.3    76  ILE76       0.0019
     32  CD1      -24.2160  -22.4150   47.6310 C.3    76  ILE76       0.0001
     33  N        -26.2170  -25.7890   50.2760 N.3    78  PHE78      -0.1241
     34  CA       -25.6990  -25.1200   51.4620 C.3    78  PHE78       0.1605
     35  C        -25.4160  -26.0890   52.6220 C.2    78  PHE78       0.2264
     36  O        -24.5650  -25.7990   53.4600 O.2    78  PHE78      -0.2867
     37  CB       -26.6800  -24.0690   51.9470 C.3    78  PHE78       0.0534
     38  CG       -26.4450  -22.6960   51.3740 C.ar   78  PHE78      -0.0203
     39  CD1      -25.3640  -21.9330   51.7940 C.ar   78  PHE78      -0.0042
     40  CD2      -27.2920  -22.1790   50.4170 C.ar   78  PHE78      -0.0042
     41  CE1      -25.1330  -20.6450   51.2670 C.ar   78  PHE78      -0.0003
     42  CE2      -27.0650  -20.8730   49.8920 C.ar   78  PHE78      -0.0003
     43  CZ       -25.9920  -20.1250   50.3300 C.ar   78  PHE78      -0.0000
     44  N        -21.8570  -27.4160   53.4570 N.3    81  PHE81      -0.1241
     45  CA       -20.9160  -26.5130   54.1270 C.3    81  PHE81       0.1605
     46  C        -21.2260  -26.3960   55.6250 C.2    81  PHE81       0.2264
     47  O        -22.3880  -26.4580   56.0300 O.2    81  PHE81      -0.2867
     48  CB       -20.9750  -25.1150   53.5160 C.3    81  PHE81       0.0534
     49  CG       -20.5980  -25.0620   52.0950 C.ar   81  PHE81      -0.0203
     50  CD1      -21.5500  -25.0680   51.1250 C.ar   81  PHE81      -0.0042
     51  CD2      -19.2730  -24.9140   51.7250 C.ar   81  PHE81      -0.0042
     52  CE1      -21.1860  -24.9820   49.7940 C.ar   81  PHE81      -0.0003
     53  CE2      -18.9240  -24.8170   50.4010 C.ar   81  PHE81      -0.0003
     54  CZ       -19.8600  -24.8430   49.4480 C.ar   81  PHE81      -0.0000
     55  N        -21.0120  -23.6380   58.4070 N.3    83  LEU83      -0.1245
     56  CA       -20.9360  -22.1830   58.4680 C.3    83  LEU83       0.1561
     57  C        -21.1980  -21.5710   59.8500 C.2    83  LEU83       0.2260
     58  O        -21.4020  -20.3530   59.9930 O.2    83  LEU83      -0.2867
     59  CB       -21.9370  -21.6010   57.4830 C.3    83  LEU83       0.0270
     60  CG       -21.8560  -22.1730   56.0730 C.3    83  LEU83       0.0019
     61  CD1      -22.9550  -21.5870   55.2080 C.3    83  LEU83       0.0001
     62  CD2      -20.4860  -21.9420   55.4700 C.3    83  LEU83       0.0001
     63  N        -15.2620  -21.9290   59.6550 N.3    89  TRP89      -0.1241
     64  CA       -14.9980  -20.8770   58.6780 C.3    89  TRP89       0.1605
     65  C        -13.5260  -20.7990   58.2800 C.2    89  TRP89       0.2264
     66  O        -13.2450  -20.4530   57.1550 O.2    89  TRP89      -0.2867
     67  CB       -15.5250  -19.5380   59.1820 C.3    89  TRP89       0.0550
     68  CG       -16.9150  -19.3190   58.7260 C.ar   89  TRP89       0.0003
     69  CD1      -18.0460  -19.5300   59.4230 C.ar   89  TRP89       0.0946
     70  CD2      -17.3170  -18.8550   57.4350 C.ar   89  TRP89       0.0152
     71  NE1      -19.1390  -19.2460   58.6440 N.ar   89  TRP89      -0.2442
     72  CE2      -18.7140  -18.8120   57.4200 C.ar   89  TRP89       0.0810
     73  CE3      -16.6290  -18.4410   56.2930 C.ar   89  TRP89       0.0012
     74  CZ2      -19.4340  -18.3690   56.3270 C.ar   89  TRP89       0.0191
     75  CZ3      -17.3390  -18.0220   55.2180 C.ar   89  TRP89       0.0001
     76  CH2      -18.7280  -18.0120   55.2210 C.ar   89  TRP89       0.0015
     77  N        -12.8970  -22.8780   55.3500 N.3    92  ILE92      -0.1245
     78  CA       -13.4650  -22.2780   54.1260 C.3    92  ILE92       0.1561
     79  C        -12.6030  -21.1000   53.6570 C.2    92  ILE92       0.2260
     80  O        -12.3520  -20.9660   52.4610 O.2    92  ILE92      -0.2867
     81  CB       -14.8920  -21.8250   54.3810 C.3    92  ILE92       0.0252
     82  CG1      -15.8030  -23.0680   54.4760 C.3    92  ILE92       0.0019
     83  CG2      -15.4130  -20.9080   53.2900 C.3    92  ILE92       0.0019
     84  CD1      -17.0620  -22.8050   55.1640 C.3    92  ILE92       0.0001
     85  N        -10.7290  -21.1170   50.2790 N.3    96  GLY96      -0.1225
     86  CA       -11.2410  -20.0310   49.4510 C.3    96  GLY96       0.1811
     87  C        -10.1410  -19.1300   48.9130 C.2    96  GLY96       0.2280
     88  O        -10.1870  -18.7080   47.7440 O.2    96  GLY96      -0.2866
     89  N        -25.2640  -16.9230   46.0390 N.3   143  PRO143     -0.2102
     90  CA       -25.2570  -17.3830   47.4300 C.3   143  PRO143      0.1504
     91  C        -24.7530  -16.3820   48.4240 C.2   143  PRO143      0.2575
     92  O        -24.5480  -16.7360   49.5740 O.2   143  PRO143     -0.2718
     93  CB       -24.3000  -18.5810   47.3730 C.3   143  PRO143      0.0282
     94  CG       -23.2680  -18.1710   46.3250 C.3   143  PRO143      0.0208
     95  CD       -24.0300  -17.3150   45.3480 C.3   143  PRO143      0.0893
     96  N        -24.5300  -15.1440   48.0020 N.am  144  HIS144     -0.1976
     97  CA       -24.0690  -14.1510   48.9510 C.3   144  HIS144      0.1656
     98  C        -25.2080  -13.2190   49.3910 C.2   144  HIS144      0.2291
     99  O        -26.0520  -13.6290   50.1770 O.2   144  HIS144     -0.2864
    100  CB       -22.8800  -13.4390   48.3630 C.3   144  HIS144      0.0771
    101  CG       -21.7110  -14.3390   48.1580 C.ar  144  HIS144      0.0820
    102  ND1      -21.1130  -14.5160   46.9320 N.ar  144  HIS144     -0.2267
    103  CD2      -21.0420  -15.1380   49.0130 C.ar  144  HIS144      0.1154
    104  CE1      -20.1050  -15.3550   47.0500 C.ar  144  HIS144      0.1986
    105  NE2      -20.0230  -15.7240   48.3110 N.ar  144  HIS144     -0.2212
    106  N        -25.6230  -13.1070   53.1420 N.3   149  ILE149     -0.1245
    107  CA       -24.1990  -13.4320   53.3580 C.3   149  ILE149      0.1561
    108  C        -23.3690  -12.3730   52.6010 C.2   149  ILE149      0.2260
    109  O        -23.7000  -11.9990   51.4830 O.2   149  ILE149     -0.2867
    110  CB       -23.9170  -14.8860   52.8340 C.3   149  ILE149      0.0252
    111  CG1      -24.6030  -15.9020   53.7350 C.3   149  ILE149      0.0019
    112  CG2      -22.4020  -15.1990   52.7210 C.3   149  ILE149      0.0019
    113  CD1      -24.5770  -17.3550   53.1640 C.3   149  ILE149      0.0001
    114  N        -15.8510  -13.2750   49.2950 N.3   153  ASP153     -0.1239
    115  CA       -15.0220  -14.4150   48.9680 C.3   153  ASP153      0.1674
    116  C        -14.2160  -14.2240   47.6930 C.2   153  ASP153      0.2266
    117  O        -13.6700  -15.1660   47.1110 O.2   153  ASP153     -0.2867
    118  CB       -15.8760  -15.6930   48.8840 C.3   153  ASP153      0.1410
    119  CG       -16.7520  -15.7240   47.6790 C.2   153  ASP153      0.3668
    120  OD1      -16.9770  -14.6720   47.0030 O.co2 153  ASP153     -0.2456
    121  OD2      -17.2780  -16.8050   47.3010 O.co2 153  ASP153     -0.2456
    122  N        -13.0320  -12.2940   53.2950 N.3   240  LEU240     -0.1245
    123  CA       -13.3880  -13.5800   53.8200 C.3   240  LEU240      0.1561
    124  C        -13.5950  -13.5280   55.3120 C.2   240  LEU240      0.2260
    125  O        -14.5170  -14.1260   55.8190 O.2   240  LEU240     -0.2867
    126  CB       -12.3250  -14.6300   53.4210 C.3   240  LEU240      0.0270
    127  CG       -12.4060  -15.1400   51.9940 C.3   240  LEU240      0.0019
    128  CD1      -11.1540  -15.9190   51.5040 C.3   240  LEU240      0.0001
    129  CD2      -13.6190  -16.0530   51.8980 C.3   240  LEU240      0.0001
    130  N        -16.8510  -11.7430   56.0400 N.3   243  GLU243     -0.1245
    131  CA       -17.9610  -12.6050   55.6590 C.3   243  GLU243      0.1567
    132  C        -18.1950  -13.6890   56.7430 C.2   243  GLU243      0.2260
    133  O        -19.3380  -13.9730   57.1190 O.2   243  GLU243     -0.2867
    134  CB       -17.7040  -13.2370   54.3000 C.3   243  GLU243      0.0388
    135  CG       -18.7890  -14.2020   53.8290 C.3   243  GLU243      0.1160
    136  CD       -18.4850  -14.8670   52.5320 C.2   243  GLU243      0.3649
    137  OE1      -17.6040  -14.3400   51.7700 O.co2 243  GLU243     -0.2457
    138  OE2      -19.1050  -15.9530   52.2760 O.co2 243  GLU243     -0.2457
@<TRIPOS>BOND
     1    13    11   ar
     2    13    14   ar
     3    11     8   ar
     4     1     2    1
     5    14    12   ar
     6     8     6   ar
     7     8    10   ar
     8     2     5    1
     9     2     3    1
    10     5     6    1
    11    25    26    1
    12    12    10   ar
    13     6     7   ar
    14    10     9   ar
    15    95    89    1
    16    95    94    1
    17    26    29    1
    18    26    27    1
    19     3     4    2
    20    15    16    1
    21    18    17    2
    22     7     9   ar
    23    16    17    1
    24    16    19    1
    25    89    90    1
    26    29    31    1
    27    29    30    1
    28    94    93    1
    29    27    28    2
    30   102   104   ar
    31   102   101   ar
    32   120   119   ar
    33   104   105   ar
    34    19    20    1
    35   117   116    2
    36    30    32    1
    37   121   119   ar
    38    93    90    1
    39    90    91    1
    40   119   118    1
    41   116   115    1
    42    88    87    2
    43    20    21   ar
    44    20    22   ar
    45    21    23   ar
    46    96    91   am
    47    96    97    1
    48   101   100    1
    49   101   103   ar
    50   105   103   ar
    51   100    97    1
    52    91    92    2
    53    23    24   ar
    54    22    24   ar
    55   118   115    1
    56    87    86    1
    57    97    98    1
    58   115   114    1
    59    98    99    2
    60    54    52   ar
    61    54    53   ar
    62    86    85    1
    63    52    50   ar
    64    42    43   ar
    65    42    40   ar
    66    33    34    1
    67    43    41   ar
    68    53    51   ar
    69    40    38   ar
    70    50    49   ar
    71    41    39   ar
    72    38    39   ar
    73    38    37    1
    74    34    37    1
    75    34    35    1
    76   109   108    2
    77   128   127    1
    78    51    49   ar
    79   137   136   ar
    80   129   127    1
    81   127   126    1
    82    49    48    1
    83   138   136   ar
    84    80    79    2
    85   136   135    1
    86   108   107    1
    87    35    36    2
    88   112   110    1
    89   110   107    1
    90   110   111    1
    91   106   107    1
    92   113   111    1
    93    83    81    1
    94   122   123    1
    95   126   123    1
    96    44    45    1
    97    48    45    1
    98    79    78    1
    99   123   124    1
   100   135   134    1
   101    78    81    1
   102    78    77    1
   103    45    46    1
   104   134   131    1
   105    81    82    1
   106    82    84    1
   107    61    60    1
   108    75    76   ar
   109    75    73   ar
   110    76    74   ar
   111   124   125    2
   112    62    60    1
   113    46    47    2
   114   131   130    1
   115   131   132    1
   116    60    59    1
   117    73    70   ar
   118    74    72   ar
   119   132   133    2
   120    66    65    2
   121    72    70   ar
   122    72    71   ar
   123    70    68   ar
   124    59    56    1
   125    65    64    1
   126    55    56    1
   127    56    57    1
   128    71    69   ar
   129    64    67    1
   130    64    63    1
   131    68    67    1
   132    68    69   ar
   133    57    58    2
