@<TRIPOS>MOLECULE
tmp/1szrC00.pdb
 140 134 0 0 0
SMALL
GASTEIGER

@<TRIPOS>ATOM
      1  N         24.0410   15.4400    3.0210 N.3    31  ALA31      -0.1245
      2  CA        22.6370   15.0700    2.8210 C.3    31  ALA31       0.1562
      3  C         22.2990   13.8250    3.6560 C.2    31  ALA31       0.2260
      4  O         22.6080   12.7010    3.2680 O.2    31  ALA31      -0.2867
      5  CB        22.3570   14.8270    1.3510 C.3    31  ALA31       0.0290
      6  N         19.7040   12.1600    4.2190 N.3    33  LYS33      -0.1245
      7  CA        18.8430   11.1770    3.5510 C.3    33  LYS33       0.1561
      8  C         19.6150    9.9910    2.9720 C.2    33  LYS33       0.2260
      9  O         19.1010    8.8780    2.9300 O.2    33  LYS33      -0.2867
     10  CB        18.0400   11.8540    2.4280 C.3    33  LYS33       0.0271
     11  CG        18.8750   12.2330    1.1990 C.3    33  LYS33       0.0035
     12  CD        18.0670   13.0250    0.1690 C.3    33  LYS33       0.0206
     13  CE        18.3520   12.5780   -1.2680 C.3    33  LYS33       0.1093
     14  NZ        19.1840   13.4810   -2.1260 N.3    33  LYS33      -0.1314
     15  N         22.3550   18.7420    5.4460 N.3    52  ASP52      -0.1239
     16  CA        21.1710   19.0610    4.6530 C.3    52  ASP52       0.1674
     17  C         20.0880   18.0860    5.0830 C.2    52  ASP52       0.2266
     18  O         20.2090   16.8910    4.8490 O.2    52  ASP52      -0.2867
     19  CB        21.4970   18.9340    3.1520 C.3    52  ASP52       0.1410
     20  CG        20.2630   18.7070    2.2720 C.2    52  ASP52       0.3668
     21  OD1       19.1110   18.9280    2.7260 O.co2  52  ASP52      -0.2456
     22  OD2       20.3640   18.3090    1.0870 O.co2  52  ASP52      -0.2456
     23  N         16.7480   21.7550    3.0550 N.3    75  ALA75      -0.1245
     24  CA        16.7050   21.8390    1.5870 C.3    75  ALA75       0.1562
     25  C         15.7000   20.8730    0.9800 C.2    75  ALA75       0.2260
     26  O         16.0300   20.0840    0.0990 O.2    75  ALA75      -0.2867
     27  CB        18.0930   21.6060    0.9880 C.3    75  ALA75       0.0290
     28  N         15.7120   27.5000   -5.3770 N.3   118  ARG118     -0.1245
     29  CA        16.2410   26.3740   -6.1180 C.3   118  ARG118      0.1563
     30  C         15.8580   26.5100   -7.5930 C.2   118  ARG118      0.2260
     31  O         14.6960   26.7530   -7.9090 O.2   118  ARG118     -0.2867
     32  CB        15.6890   25.0670   -5.5630 C.3   118  ARG118      0.0307
     33  CG        16.1850   23.8440   -6.3110 C.3   118  ARG118      0.0489
     34  CD        16.1910   22.6080   -5.4920 C.3   118  ARG118      0.2205
     35  NE        16.3700   21.4130   -6.3060 N.pl3 118  ARG118     -0.0865
     36  CZ        16.0870   20.1810   -5.9020 C.cat 118  ARG118      0.5346
     37  NH1       15.6000   19.9610   -4.6860 N.pl3 118  ARG118      0.1354
     38  NH2       16.2890   19.1570   -6.7160 N.pl3 118  ARG118      0.1354
     39  N         20.5470   21.4130   -8.0370 N.3   148  HIS148     -0.1241
     40  CA        20.9400   20.0250   -7.9070 C.3   148  HIS148      0.1621
     41  C         21.0480   19.3760   -9.2780 C.2   148  HIS148      0.2264
     42  O         20.0390   19.1520   -9.9360 O.2   148  HIS148     -0.2867
     43  CB        19.9170   19.2630   -7.0800 C.3   148  HIS148      0.0745
     44  CG        20.3870   17.9090   -6.6560 C.ar  148  HIS148      0.0817
     45  ND1       21.5630   17.7200   -5.9700 N.ar  148  HIS148     -0.2268
     46  CD2       19.8410   16.6810   -6.8160 C.ar  148  HIS148      0.1154
     47  CE1       21.7270   16.4330   -5.7240 C.ar  148  HIS148      0.1986
     48  NE2       20.6950   15.7800   -6.2250 N.ar  148  HIS148     -0.2212
     49  N         22.3460   16.2810   -9.8180 N.3   150  GLY150     -0.1210
     50  CA        22.0700   14.8590   -9.7090 C.3   150  GLY150      0.1956
     51  C         23.3270   14.0690   -9.9990 C.2   150  GLY150      0.2612
     52  O         24.3440   14.6450  -10.3670 O.2   150  GLY150     -0.2717
     53  N         23.2580   12.7530   -9.8440 N.am  151  SER151     -0.1952
     54  CA        24.4470   11.8990   -9.9540 C.3   151  SER151      0.1924
     55  C         24.7420   11.3790  -11.3650 C.2   151  SER151      0.2314
     56  O         25.8330   10.8610  -11.6070 O.2   151  SER151     -0.2863
     57  CB        24.3390   10.7080   -8.9950 C.3   151  SER151      0.2116
     58  OG        23.2000    9.9190   -9.2720 O.3   151  SER151     -0.2180
     59  N         24.2790   18.3350   -4.7420 N.3   187  GLY187     -0.1210
     60  CA        25.0410   17.1030   -4.7100 C.3   187  GLY187      0.1956
     61  C         25.1940   16.4860   -6.0890 C.2   187  GLY187      0.2612
     62  O         25.0410   17.1610   -7.1040 O.2   187  GLY187     -0.2717
     63  N         25.4960   15.1910   -6.1090 N.am  188  GLY188     -0.1942
     64  CA        25.6750   14.4380   -7.3360 C.3   188  GLY188      0.2014
     65  C         27.1030   13.9610   -7.5310 C.2   188  GLY188      0.2638
     66  O         27.3940   13.2180   -8.4710 O.2   188  GLY188     -0.2714
     67  N         27.9920   14.3680   -6.6310 N.am  189  PHE189     -0.1973
     68  CA        29.4060   14.0310   -6.7430 C.3   189  PHE189      0.1639
     69  C         29.5870   12.5360   -6.5190 C.2   189  PHE189      0.2290
     70  O         28.9150   11.9530   -5.6630 O.2   189  PHE189     -0.2864
     71  CB        30.2480   14.8300   -5.7360 C.3   189  PHE189      0.0560
     72  CG        29.9240   16.2980   -5.7110 C.ar  189  PHE189     -0.0200
     73  CD1       28.9880   16.8020   -4.8100 C.ar  189  PHE189     -0.0042
     74  CD2       30.5400   17.1720   -6.5920 C.ar  189  PHE189     -0.0042
     75  CE1       28.6690   18.1400   -4.7960 C.ar  189  PHE189     -0.0003
     76  CE2       30.2270   18.5210   -6.5740 C.ar  189  PHE189     -0.0003
     77  CZ        29.2900   19.0050   -5.6760 C.ar  189  PHE189     -0.0000
     78  N         25.6770   20.1550   -1.0540 N.3   225  GLU225     -0.1231
     79  CA        24.8670   19.1430   -0.3950 C.3   225  GLU225      0.1684
     80  C         25.2780   17.7280   -0.8070 C.2   225  GLU225      0.2434
     81  O         24.4480   16.9920   -1.3190 O.2   225  GLU225     -0.2733
     82  CB        23.3820   19.3540   -0.7470 C.3   225  GLU225      0.0402
     83  CG        22.8410   20.7470   -0.4680 C.3   225  GLU225      0.1161
     84  CD        21.4860   21.0190   -1.1210 C.2   225  GLU225      0.3649
     85  OE1       20.7880   21.9550   -0.6780 O.co2 225  GLU225     -0.2457
     86  OE2       21.1080   20.3130   -2.0790 O.co2 225  GLU225     -0.2457
     87  N         26.5350   17.3330   -0.5920 N.am  226  PRO226     -0.2718
     88  CA        26.9780   15.9850   -0.9760 C.3   226  PRO226      0.1535
     89  C         26.3670   14.9030   -0.1000 C.2   226  PRO226      0.2599
     90  O         26.2560   15.1020    1.1060 O.2   226  PRO226     -0.2715
     91  CB        28.4810   16.0340   -0.7460 C.3   226  PRO226      0.0310
     92  CG        28.6390   17.0410    0.3270 C.3   226  PRO226      0.0237
     93  CD        27.6290   18.1050    0.0300 C.3   226  PRO226      0.0939
     94  N         25.9810   13.7870   -0.7080 N.am  227  GLY227     -0.1941
     95  CA        25.4650   12.6330    0.0050 C.3   227  GLY227      0.2014
     96  C         26.3510   11.4240   -0.2180 C.2   227  GLY227      0.2639
     97  O         27.1660   11.0720    0.6320 O.2   227  GLY227     -0.2714
     98  N         26.2070   10.8050   -1.3870 N.am  228  ARG228     -0.1963
     99  CA        26.9350    9.5820   -1.7220 C.3   228  ARG228      0.1729
    100  C         28.4420    9.7830   -1.7200 C.2   228  ARG228      0.2616
    101  O         29.1900    8.8500   -1.4690 O.2   228  ARG228     -0.2715
    102  CB        26.4870    9.0390   -3.0830 C.3   228  ARG228      0.0348
    103  CG        26.9490    9.8540   -4.2730 C.3   228  ARG228      0.0492
    104  CD        26.4060    9.3730   -5.5940 C.3   228  ARG228      0.2205
    105  NE        24.9850    9.6850   -5.7350 N.pl3 228  ARG228     -0.0865
    106  CZ        24.0070    8.7880   -5.8450 C.cat 228  ARG228      0.5346
    107  NH1       24.2630    7.4860   -5.8530 N.pl3 228  ARG228      0.1354
    108  NH2       22.7510    9.2060   -5.9660 N.pl3 228  ARG228      0.1354
    109  N         28.8840   11.0050   -2.0030 N.am  229  TYR229     -0.1974
    110  CA        30.3110   11.3210   -2.0120 C.3   229  TYR229      0.1639
    111  C         30.9840   10.8410   -0.7340 C.2   229  TYR229      0.2290
    112  O         32.0270   10.2000   -0.7830 O.2   229  TYR229     -0.2864
    113  CB        30.5510   12.8240   -2.1760 C.3   229  TYR229      0.0560
    114  CG        32.0070   13.1710   -1.9960 C.ar  229  TYR229     -0.0198
    115  CD1       32.9070   13.0200   -3.0480 C.ar  229  TYR229     -0.0009
    116  CD2       32.5020   13.5850   -0.7590 C.ar  229  TYR229     -0.0009
    117  CE1       34.2490   13.2960   -2.8900 C.ar  229  TYR229      0.0417
    118  CE2       33.8500   13.8640   -0.5910 C.ar  229  TYR229      0.0417
    119  CZ        34.7220   13.7160   -1.6640 C.ar  229  TYR229      0.1957
    120  OH        36.0640   13.9870   -1.5240 O.3   229  TYR229     -0.2866
    121  N         17.6250    3.9360   -6.8520 N.3   268  ASP268     -0.1239
    122  CA        18.8270    4.7320   -7.0800 C.3   268  ASP268      0.1674
    123  C         19.6490    4.3100   -8.3060 C.2   268  ASP268      0.2266
    124  O         20.8110    4.6800   -8.4220 O.2   268  ASP268     -0.2867
    125  CB        19.7030    4.6940   -5.8240 C.3   268  ASP268      0.1410
    126  CG        20.7450    5.7840   -5.8120 C.2   268  ASP268      0.3668
    127  OD1       21.9280    5.4750   -5.5720 O.co2 268  ASP268     -0.2456
    128  OD2       20.4730    6.9750   -6.0470 O.co2 268  ASP268     -0.2456
    129  N         22.3350    5.2780   -0.0980 N.3   325  TYR325     -0.1241
    130  CA        20.9480    4.9180   -0.4070 C.3   325  TYR325      0.1605
    131  C         20.6880    3.4190   -0.3070 C.2   325  TYR325      0.2264
    132  O         20.0050    2.8480   -1.1530 O.2   325  TYR325     -0.2867
    133  CB        20.5580    5.4590   -1.7940 C.3   325  TYR325      0.0534
    134  CG        20.8080    6.9380   -1.8880 C.ar  325  TYR325     -0.0201
    135  CD1       21.9620    7.4330   -2.4810 C.ar  325  TYR325     -0.0009
    136  CD2       19.9130    7.8420   -1.3300 C.ar  325  TYR325     -0.0009
    137  CE1       22.2080    8.7920   -2.5350 C.ar  325  TYR325      0.0417
    138  CE2       20.1450    9.2030   -1.3840 C.ar  325  TYR325      0.0417
    139  CZ        21.3000    9.6710   -1.9820 C.ar  325  TYR325      0.1957
    140  OH        21.5390   11.0130   -2.0270 O.3   325  TYR325     -0.2866
@<TRIPOS>BOND
     1    56    55    2
     2    55    54    1
     3    52    51    2
     4    51    53   am
     5    51    50    1
     6    54    53    1
     7    54    57    1
     8    42    41    2
     9    49    50    1
    10    41    40    1
    11    58    57    1
    12    66    65    2
    13   124   123    2
    14   123   122    1
    15    39    40    1
    16    31    30    2
    17    40    43    1
    18    30    29    1
    19    65    64    1
    20    65    67   am
    21    64    63    1
    22    62    61    2
    23    43    44    1
    24   122   121    1
    25   122   125    1
    26    46    44   ar
    27    46    48   ar
    28    68    67    1
    29    68    69    1
    30    68    71    1
    31    38    36    1
    32    44    45   ar
    33    74    76   ar
    34    74    72   ar
    35    76    77   ar
    36    69    70    2
    37    33    32    1
    38    33    34    1
    39    35    36    2
    40    35    34    1
    41    48    47   ar
    42    29    32    1
    43    29    28    1
    44    63    61   am
    45    61    60    1
    46   128   126   ar
    47    45    47   ar
    48   108   106    1
    49    36    37    1
    50   107   106    1
    51   106   105    2
    52   125   126    1
    53   126   127   ar
    54    71    72    1
    55   105   104    1
    56    72    73   ar
    57    77    75   ar
    58   104   103    1
    59    73    75   ar
    60    59    60    1
    61   103   102    1
    62   102    99    1
    63   115   117   ar
    64   115   114   ar
    65   117   119   ar
    66   137   135   ar
    67   137   139   ar
    68   135   134   ar
    69   113   110    1
    70   113   114    1
    71    14    13    1
    72    86    84   ar
    73   140   139    1
    74   110   109    1
    75   110   111    1
    76   109   100   am
    77   114   116   ar
    78   139   138   ar
    79   134   133    1
    80   134   136   ar
    81   133   130    1
    82    99   100    1
    83    99    98    1
    84   100   101    2
    85   119   120    1
    86   119   118   ar
    87    98    96   am
    88   138   136   ar
    89    81    80    2
    90    13    12    1
    91   132   131    2
    92    84    85   ar
    93    84    83    1
    94    78    79    1
    95    88    91    1
    96    88    87    1
    97    88    89    1
    98    80    87   am
    99    80    79    1
   100   112   111    2
   101   116   118   ar
   102    82    83    1
   103    82    79    1
   104    91    92    1
   105    94    89   am
   106    94    95    1
   107    87    93    1
   108   130   131    1
   109   130   129    1
   110    96    95    1
   111    96    97    2
   112    89    90    2
   113    93    92    1
   114    26    25    2
   115    12    11    1
   116    25    24    1
   117    27    24    1
   118    22    20   ar
   119    11    10    1
   120     5     2    1
   121    24    23    1
   122    20    21   ar
   123    20    19    1
   124    10     7    1
   125     2     1    1
   126     2     3    1
   127     9     8    2
   128     8     7    1
   129    19    16    1
   130     4     3    2
   131     7     6    1
   132    16    17    1
   133    16    15    1
   134    18    17    2
