@<TRIPOS>MOLECULE
tmp/1szuD00.pdb
 122 116 0 0 0
SMALL
GASTEIGER

@<TRIPOS>ATOM
      1  N         40.3230   49.2900   81.8130 N.3    49  ILE49      -0.1245
      2  CA        39.8260   49.9290   80.5980 C.3    49  ILE49       0.1561
      3  C         38.3010   50.0330   80.6110 C.2    49  ILE49       0.2260
      4  O         37.6100   49.4070   79.7930 O.2    49  ILE49      -0.2867
      5  CB        40.2090   49.2110   79.2890 C.3    49  ILE49       0.0252
      6  CG1       41.6660   48.7420   79.3040 C.3    49  ILE49       0.0019
      7  CG2       40.0410   50.2010   78.1300 C.3    49  ILE49       0.0019
      8  CD1       42.1320   48.1080   77.9610 C.3    49  ILE49       0.0001
      9  N         32.1880   38.8340   74.5200 N.3   109  THR109     -0.1203
     10  CA        33.0850   39.9800   74.3460 C.3   109  THR109      0.1994
     11  C         32.4860   41.1350   73.5350 C.2   109  THR109      0.2618
     12  O         31.5800   40.9370   72.7220 O.2   109  THR109     -0.2717
     13  CB        34.4190   39.5630   73.6480 C.3   109  THR109      0.1784
     14  OG1       34.1390   39.1430   72.3100 O.3   109  THR109     -0.2211
     15  CG2       35.1160   38.4230   74.4020 C.3   109  THR109      0.0376
     16  N         33.0070   42.3370   73.7690 N.am  110  GLY110     -0.1942
     17  CA        32.5530   43.5160   73.0560 C.3   110  GLY110      0.2014
     18  C         32.6940   43.3620   71.5570 C.2   110  GLY110      0.2639
     19  O         31.8640   43.8790   70.7960 O.2   110  GLY110     -0.2714
     20  N         33.7340   42.6400   71.1350 N.am  111  SER111     -0.1949
     21  CA        33.9870   42.3670   69.7230 C.3   111  SER111      0.1924
     22  C         32.8600   41.5060   69.1980 C.2   111  SER111      0.2314
     23  O         32.3500   41.7530   68.1090 O.2   111  SER111     -0.2863
     24  CB        35.3070   41.6030   69.5260 C.3   111  SER111      0.2116
     25  OG        36.4210   42.4670   69.5980 O.3   111  SER111     -0.2180
     26  N         36.7550   52.4680   67.2670 N.3   137  TYR137     -0.1227
     27  CA        37.3680   51.2380   67.7130 C.3   137  TYR137      0.1736
     28  C         36.1900   50.2920   67.9810 C.2   137  TYR137      0.2595
     29  O         35.3250   50.5980   68.8040 O.2   137  TYR137     -0.2718
     30  CB        38.1870   51.4250   69.0090 C.3   137  TYR137      0.0548
     31  CG        38.8460   50.1250   69.4470 C.ar  137  TYR137     -0.0200
     32  CD1       40.0240   49.6670   68.8370 C.ar  137  TYR137     -0.0009
     33  CD2       38.2490   49.3100   70.4150 C.ar  137  TYR137     -0.0009
     34  CE1       40.5910   48.4090   69.1840 C.ar  137  TYR137      0.0417
     35  CE2       38.7980   48.0710   70.7690 C.ar  137  TYR137      0.0417
     36  CZ        39.9620   47.6200   70.1540 C.ar  137  TYR137      0.1957
     37  OH        40.4630   46.3740   70.4930 O.3   137  TYR137     -0.2866
     38  N         36.1550   49.1470   67.3110 N.am  138  HIS138     -0.1961
     39  CA        35.0630   48.2210   67.5290 C.3   138  HIS138      0.1787
     40  C         35.4770   46.7930   67.8530 C.2   138  HIS138      0.2621
     41  O         34.6200   45.9210   67.9910 O.2   138  HIS138     -0.2715
     42  CB        34.1390   48.2300   66.3120 C.3   138  HIS138      0.0785
     43  CG        33.4810   49.5570   66.0800 C.ar  138  HIS138      0.0821
     44  ND1       32.7020   50.1750   67.0380 N.ar  138  HIS138     -0.2267
     45  CD2       33.5050   50.3960   65.0160 C.ar  138  HIS138      0.1154
     46  CE1       32.2800   51.3390   66.5740 C.ar  138  HIS138      0.1986
     47  NE2       32.7510   51.4970   65.3510 N.ar  138  HIS138     -0.2212
     48  N         36.7750   46.5390   67.9780 N.am  139  GLY139     -0.1940
     49  CA        37.1970   45.1860   68.2900 C.3   139  GLY139      0.2014
     50  C         38.3650   44.6990   67.4560 C.2   139  GLY139      0.2638
     51  O         38.8550   45.4070   66.5720 O.2   139  GLY139     -0.2714
     52  N         38.7880   43.4690   67.7130 N.am  140  ARG140     -0.1977
     53  CA        39.9420   42.9410   67.0130 C.3   140  ARG140      0.1597
     54  C         39.7380   41.6840   66.1830 C.2   140  ARG140      0.2287
     55  O         40.6810   40.9610   65.9200 O.2   140  ARG140     -0.2864
     56  CB        41.0900   42.7220   68.0070 C.3   140  ARG140      0.0334
     57  CG        41.3750   43.9490   68.8540 C.3   140  ARG140      0.0492
     58  CD        42.8290   44.0200   69.2000 C.3   140  ARG140      0.2205
     59  NE        43.1760   45.1220   70.0890 N.pl3 140  ARG140     -0.0865
     60  CZ        44.4320   45.4730   70.3460 C.cat 140  ARG140      0.5346
     61  NH1       45.4230   44.8090   69.7750 N.pl3 140  ARG140      0.1354
     62  NH2       44.6990   46.4640   71.1800 N.pl3 140  ARG140      0.1354
     63  N         30.0180   55.1160   67.9800 N.3   205  GLU205     -0.1245
     64  CA        30.2390   55.1850   69.4150 C.3   205  GLU205      0.1567
     65  C         29.6880   56.5510   69.8270 C.2   205  GLU205      0.2260
     66  O         30.1710   57.6040   69.3650 O.2   205  GLU205     -0.2867
     67  CB        31.7300   55.1680   69.7380 C.3   205  GLU205      0.0388
     68  CG        32.4250   53.8050   69.6860 C.3   205  GLU205      0.1160
     69  CD        33.9410   53.9530   69.5950 C.2   205  GLU205      0.3649
     70  OE1       34.4350   54.1680   68.4710 O.co2 205  GLU205     -0.2457
     71  OE2       34.6370   53.8880   70.6420 O.co2 205  GLU205     -0.2457
     72  N         38.7840   54.6250   72.4770 N.3   210  GLU210     -0.1245
     73  CA        40.1700   54.5710   72.0200 C.3   210  GLU210      0.1567
     74  C         40.4210   55.7560   71.0920 C.2   210  GLU210      0.2260
     75  O         41.5370   56.2760   71.0060 O.2   210  GLU210     -0.2867
     76  CB        40.4480   53.2580   71.2890 C.3   210  GLU210      0.0388
     77  CG        40.0690   52.0300   72.0940 C.3   210  GLU210      0.1160
     78  CD        40.6630   52.0390   73.5040 C.2   210  GLU210      0.3649
     79  OE1       41.8960   52.2520   73.6510 O.co2 210  GLU210     -0.2457
     80  OE2       39.9000   51.8230   74.4700 O.co2 210  GLU210     -0.2457
     81  N         27.6480   51.3970   69.5890 N.3   238  ASP238     -0.1239
     82  CA        28.6000   50.5310   70.2770 C.3   238  ASP238      0.1674
     83  C         28.8470   51.2170   71.6040 C.2   238  ASP238      0.2266
     84  O         29.5690   52.2190   71.6600 O.2   238  ASP238     -0.2867
     85  CB        29.9110   50.4680   69.4960 C.3   238  ASP238      0.1410
     86  CG        30.9270   49.4950   70.0960 C.2   238  ASP238      0.3668
     87  OD1       30.7700   49.0770   71.2570 O.co2 238  ASP238     -0.2456
     88  OD2       31.9010   49.1600   69.3820 O.co2 238  ASP238     -0.2456
     89  N         30.1020   49.6400   74.3720 N.3   240  ALA240     -0.1231
     90  CA        30.9630   48.7780   75.1780 C.3   240  ALA240      0.1694
     91  C         31.7280   49.5920   76.2170 C.2   240  ALA240      0.2592
     92  O         31.8390   49.1930   77.3810 O.2   240  ALA240     -0.2718
     93  CB        31.9590   48.0360   74.2800 C.3   240  ALA240      0.0304
     94  N         32.2450   50.7440   75.7980 N.am  241  GLN241     -0.1966
     95  CA        33.0070   51.5850   76.7050 C.3   241  GLN241      0.1733
     96  C         32.1880   52.7530   77.2810 C.2   241  GLN241      0.2617
     97  O         32.3350   53.0980   78.4690 O.2   241  GLN241     -0.2715
     98  CB        34.2860   52.0950   76.0000 C.3   241  GLN241      0.0408
     99  CG        35.1820   52.9300   76.8920 C.3   241  GLN241      0.0908
    100  CD        36.6280   53.0820   76.3740 C.2   241  GLN241      0.2608
    101  OE1       37.4040   53.8710   76.9170 O.2   241  GLN241     -0.2717
    102  NE2       36.9860   52.3260   75.3490 N.am  241  GLN241     -0.0878
    103  N         31.3290   53.3610   76.4620 N.am  242  SER242     -0.1950
    104  CA        30.5080   54.4810   76.9480 C.3   242  SER242      0.1924
    105  C         29.3090   54.0000   77.7580 C.2   242  SER242      0.2314
    106  O         28.7070   54.7740   78.4890 O.2   242  SER242     -0.2863
    107  CB        29.9960   55.3480   75.7940 C.3   242  SER242      0.2116
    108  OG        29.0380   54.6540   75.0160 O.3   242  SER242     -0.2180
    109  N         29.1060   46.0150   77.0800 N.3   266  ALA266     -0.1231
    110  CA        30.1540   45.1270   77.5440 C.3   266  ALA266      0.1694
    111  C         30.8600   45.7430   78.7440 C.2   266  ALA266      0.2591
    112  O         30.2590   46.4780   79.5400 O.2   266  ALA266     -0.2718
    113  CB        31.1730   44.8950   76.4040 C.3   266  ALA266      0.0304
    114  N         32.1390   45.4060   78.8690 N.am  267  LYS267     -0.1980
    115  CA        33.0020   45.8860   79.9320 C.3   267  LYS267      0.1596
    116  C         32.3460   46.0500   81.3110 C.2   267  LYS267      0.2287
    117  O         32.1080   45.0610   81.9970 O.2   267  LYS267     -0.2864
    118  CB        33.6630   47.1850   79.4770 C.3   267  LYS267      0.0298
    119  CG        34.4920   47.0230   78.1920 C.3   267  LYS267      0.0038
    120  CD        35.2670   48.2920   77.8910 C.3   267  LYS267      0.0206
    121  CE        36.2970   48.0890   76.7980 C.3   267  LYS267      0.1093
    122  NZ        35.6730   47.9280   75.4690 N.3   267  LYS267     -0.1314
@<TRIPOS>BOND
     1    45    47   ar
     2    45    43   ar
     3    47    46   ar
     4    55    54    2
     5    43    42    1
     6    43    44   ar
     7    54    53    1
     8    42    39    1
     9    51    50    2
    10    46    44   ar
    11    53    52    1
    12    53    56    1
    13    26    27    1
    14    38    39    1
    15    38    28   am
    16    50    52   am
    17    50    49    1
    18    39    40    1
    19    27    28    1
    20    27    30    1
    21    40    48   am
    22    40    41    2
    23    48    49    1
    24    63    64    1
    25    28    29    2
    26    56    57    1
    27    23    22    2
    28    70    69   ar
    29    32    34   ar
    30    32    31   ar
    31    57    58    1
    32    30    31    1
    33    34    36   ar
    34    22    21    1
    35    58    59    1
    36    66    65    2
    37    88    86   ar
    38    64    67    1
    39    64    65    1
    40    31    33   ar
    41    85    86    1
    42    85    82    1
    43    24    25    1
    44    24    21    1
    45    81    82    1
    46    69    68    1
    47    69    71   ar
    48    68    67    1
    49    21    20    1
    50    61    60    1
    51    59    60    2
    52    86    87   ar
    53    36    37    1
    54    36    35   ar
    55    82    83    1
    56    60    62    1
    57    33    35   ar
    58    19    18    2
    59    75    74    2
    60    74    73    1
    61    20    18   am
    62    76    73    1
    63    76    77    1
    64    18    17    1
    65    83    84    2
    66    73    72    1
    67    77    78    1
    68    14    13    1
    69    12    11    2
    70    17    16    1
    71    78    79   ar
    72    78    80   ar
    73    11    16   am
    74    11    10    1
    75    13    10    1
    76    13    15    1
    77    93    90    1
    78    10     9    1
    79    89    90    1
    80   108   107    1
    81    90    91    1
    82   102   100   am
    83   122   121    1
    84   107   104    1
    85    94    91   am
    86    94    95    1
    87    98    95    1
    88    98    99    1
    89    91    92    2
    90   100    99    1
    91   100   101    2
    92   113   110    1
    93   103   104    1
    94   103    96   am
    95    95    96    1
    96   121   120    1
    97   104   105    1
    98   109   110    1
    99    96    97    2
   100   110   111    1
   101   105   106    2
   102   120   119    1
   103     8     6    1
   104     7     5    1
   105   119   118    1
   106   111   114   am
   107   111   112    2
   108   114   115    1
   109     5     6    1
   110     5     2    1
   111   118   115    1
   112     4     3    2
   113   115   116    1
   114     2     3    1
   115     2     1    1
   116   116   117    2
