@<TRIPOS>MOLECULE
tmp/1szzG00.pdb
 199 194 0 0 0
SMALL
GASTEIGER

@<TRIPOS>ATOM
      1  N         81.2710   64.6550   28.7390 N.3    44  ALA44      -0.1231
      2  CA        79.8070   64.7190   28.6350 C.3    44  ALA44       0.1694
      3  C         79.0980   63.5560   29.3410 C.2    44  ALA44       0.2592
      4  O         77.8630   63.4650   29.3250 O.2    44  ALA44      -0.2718
      5  CB        79.3970   64.7630   27.1690 C.3    44  ALA44       0.0304
      6  N         79.8920   62.6760   29.9520 N.am   45  GLU45      -0.1966
      7  CA        79.3910   61.5130   30.6820 C.3    45  GLU45       0.1733
      8  C         78.6540   60.5500   29.7680 C.2    45  GLU45       0.2617
      9  O         77.5680   60.0780   30.0990 O.2    45  GLU45      -0.2715
     10  CB        78.4590   61.9470   31.8270 C.3    45  GLU45       0.0429
     11  CG        79.0830   62.9400   32.8120 C.3    45  GLU45       0.1163
     12  CD        78.2210   63.1880   34.0430 C.2    45  GLU45       0.3649
     13  OE1       78.1620   62.2840   34.9090 O.co2  45  GLU45      -0.2457
     14  OE2       77.6040   64.2780   34.1410 O.co2  45  GLU45      -0.2457
     15  N         79.2510   60.2540   28.6190 N.am   46  GLY46      -0.1940
     16  CA        78.6220   59.3390   27.6840 C.3    46  GLY46       0.2014
     17  C         79.1430   57.9150   27.7940 C.2    46  GLY46       0.2639
     18  O         80.1660   57.6580   28.4370 O.2    46  GLY46      -0.2714
     19  N         78.4360   56.9850   27.1650 N.am   47  VAL47      -0.1963
     20  CA        78.8330   55.5920   27.1870 C.3    47  VAL47       0.1727
     21  C         79.5290   55.2530   25.8770 C.2    47  VAL47       0.2616
     22  O         80.1700   54.2080   25.7400 O.2    47  VAL47      -0.2715
     23  CB        77.6130   54.6930   27.3640 C.3    47  VAL47       0.0290
     24  CG1       78.0460   53.2380   27.4690 C.3    47  VAL47       0.0023
     25  CG2       76.8560   55.1120   28.5970 C.3    47  VAL47       0.0023
     26  N         79.4030   56.1490   24.9100 N.am   48  GLY48      -0.1955
     27  CA        80.0270   55.9290   23.6230 C.3    48  GLY48       0.1869
     28  C         80.1110   57.2050   22.8040 C.2    48  GLY48       0.2309
     29  O         79.5370   58.2450   23.1580 O.2    48  GLY48      -0.2863
     30  N         80.2040   62.6740   15.4340 N.3    53  GLN53      -0.1245
     31  CA        79.6280   63.4610   16.5070 C.3    53  GLN53       0.1566
     32  C         80.4980   64.6670   16.8160 C.2    53  GLN53       0.2260
     33  O         80.0090   65.6730   17.3440 O.2    53  GLN53      -0.2867
     34  CB        79.4220   62.5840   17.7470 C.3    53  GLN53       0.0367
     35  CG        77.9520   62.4030   18.1160 C.3    53  GLN53       0.0905
     36  CD        77.6890   61.1330   18.9020 C.2    53  GLN53       0.2608
     37  OE1       78.5680   60.2670   19.0100 O.2    53  GLN53      -0.2717
     38  NE2       76.4790   61.0180   19.4720 N.am   53  GLN53      -0.0878
     39  N         75.2600   56.9940   36.2720 N.3    71  TYR71      -0.1241
     40  CA        73.8150   56.7810   36.3600 C.3    71  TYR71       0.1605
     41  C         73.5110   55.2760   36.2780 C.2    71  TYR71       0.2264
     42  O         73.4040   54.7240   35.1760 O.2    71  TYR71      -0.2867
     43  CB        73.1090   57.5130   35.2190 C.3    71  TYR71       0.0534
     44  CG        71.6080   57.4000   35.2350 C.ar   71  TYR71      -0.0201
     45  CD1       70.8640   57.9030   36.2740 C.ar   71  TYR71      -0.0009
     46  CD2       70.9380   56.7820   34.2300 C.ar   71  TYR71      -0.0009
     47  CE1       69.4810   57.8040   36.3190 C.ar   71  TYR71       0.0417
     48  CE2       69.5470   56.6600   34.2630 C.ar   71  TYR71       0.0417
     49  CZ        68.8410   57.2070   35.2650 C.ar   71  TYR71       0.1957
     50  OH        67.4540   57.0640   35.2700 O.3    71  TYR71      -0.2866
     51  N         72.3790   50.8480   34.3310 N.3    74  THR74      -0.1218
     52  CA        73.1940   50.6180   33.1450 C.3    74  THR74       0.1862
     53  C         74.5800   50.1590   33.6050 C.2    74  THR74       0.2287
     54  O         75.3650   50.9560   34.1320 O.2    74  THR74      -0.2866
     55  CB        73.3130   51.9060   32.3550 C.3    74  THR74       0.1770
     56  OG1       73.9260   52.8830   33.1830 O.3    74  THR74      -0.2211
     57  CG2       71.9660   52.3950   31.8580 C.3    74  THR74       0.0375
     58  N         63.9100   50.2460   25.0010 N.3    97  PHE97      -0.1227
     59  CA        64.8440   51.0090   25.7950 C.3    97  PHE97       0.1736
     60  C         64.7300   52.4930   25.5220 C.2    97  PHE97       0.2595
     61  O         64.4810   52.9110   24.4010 O.2    97  PHE97      -0.2718
     62  CB        66.2660   50.5550   25.4910 C.3    97  PHE97       0.0547
     63  CG        67.1920   50.6870   26.6580 C.ar   97  PHE97      -0.0202
     64  CD1       67.5810   49.5550   27.3800 C.ar   97  PHE97      -0.0042
     65  CD2       67.6390   51.9480   27.0740 C.ar   97  PHE97      -0.0042
     66  CE1       68.3960   49.6720   28.5020 C.ar   97  PHE97      -0.0003
     67  CE2       68.4570   52.0830   28.1970 C.ar   97  PHE97      -0.0003
     68  CZ        68.8370   50.9430   28.9130 C.ar   97  PHE97      -0.0000
     69  N         64.9120   53.3010   26.5490 N.am   98  TRP98      -0.1962
     70  CA        64.8320   54.7310   26.3520 C.3    98  TRP98       0.1771
     71  C         66.2120   55.2650   26.0250 C.2    98  TRP98       0.2620
     72  O         67.0580   55.3660   26.9090 O.2    98  TRP98      -0.2715
     73  CB        64.3000   55.4080   27.6110 C.3    98  TRP98       0.0590
     74  CG        62.8720   55.1690   27.8210 C.ar   98  TRP98       0.0006
     75  CD1       62.2930   54.0650   28.3790 C.ar   98  TRP98       0.0946
     76  CD2       61.8050   56.0340   27.4260 C.ar   98  TRP98       0.0152
     77  NE1       60.9210   54.1890   28.3560 N.ar   98  TRP98      -0.2442
     78  CE2       60.5950   55.3910   27.7750 C.ar   98  TRP98       0.0810
     79  CE3       61.7510   57.2950   26.8040 C.ar   98  TRP98       0.0012
     80  CZ2       59.3350   55.9700   27.5210 C.ar   98  TRP98       0.0191
     81  CZ3       60.4940   57.8730   26.5500 C.ar   98  TRP98       0.0001
     82  CH2       59.3080   57.2080   26.9100 C.ar   98  TRP98       0.0015
     83  N         66.4490   55.6060   24.7660 N.am   99  GLU99      -0.1963
     84  CA        67.7480   56.1280   24.3850 C.3    99  GLU99       0.1733
     85  C         67.8020   57.6470   24.3840 C.2    99  GLU99       0.2617
     86  O         66.7740   58.3240   24.3170 O.2    99  GLU99      -0.2715
     87  CB        68.1320   55.6040   23.0130 C.3    99  GLU99       0.0429
     88  CG        68.4170   54.1250   23.0020 C.3    99  GLU99       0.1163
     89  CD        68.6430   53.5860   21.6120 C.2    99  GLU99       0.3649
     90  OE1       69.4130   54.2100   20.8410 O.co2  99  GLU99      -0.2457
     91  OE2       68.0550   52.5300   21.2960 O.co2  99  GLU99      -0.2457
     92  N         69.0240   58.1650   24.4770 N.am  100  GLY100     -0.1940
     93  CA        69.2700   59.6010   24.4640 C.3   100  GLY100      0.2014
     94  C         70.5810   59.8290   23.7150 C.2   100  GLY100      0.2639
     95  O         71.5520   59.0990   23.9320 O.2   100  GLY100     -0.2714
     96  N         70.6430   60.8200   22.8300 N.am  101  CYS101     -0.1953
     97  CA        71.8820   61.0270   22.0780 C.3   101  CYS101      0.1843
     98  C         72.5910   62.2650   22.4820 C.2   101  CYS101      0.2625
     99  O         71.9950   63.3300   22.5480 O.2   101  CYS101     -0.2714
    100  CB        71.6430   61.1220   20.5660 C.3   101  CYS101      0.0997
    101  SG        73.1360   61.6450   19.6660 S.3   101  CYS101     -0.0797
    102  N         73.8830   62.1290   22.7270 N.am  102  LEU102     -0.1977
    103  CA        74.6490   63.2920   23.1050 C.3   102  LEU102      0.1596
    104  C         74.3090   64.4120   22.1480 C.2   102  LEU102      0.2287
    105  O         74.3140   65.5910   22.5030 O.2   102  LEU102     -0.2864
    106  CB        76.1320   62.9830   23.0340 C.3   102  LEU102      0.0297
    107  CG        76.5680   62.0960   24.1890 C.3   102  LEU102      0.0022
    108  CD1       77.9720   61.5810   23.9500 C.3   102  LEU102      0.0001
    109  CD2       76.4900   62.9130   25.4810 C.3   102  LEU102      0.0001
    110  N         71.4530   64.8070   20.8540 N.3   104  VAL104     -0.1245
    111  CA        70.0720   65.2120   21.1040 C.3   104  VAL104      0.1561
    112  C         69.9210   65.3730   22.6150 C.2   104  VAL104      0.2260
    113  O         69.2670   64.5590   23.2920 O.2   104  VAL104     -0.2867
    114  CB        69.0810   64.1560   20.6050 C.3   104  VAL104      0.0252
    115  CG1       67.6390   64.6320   20.8630 C.3   104  VAL104      0.0019
    116  CG2       69.3290   63.8920   19.1300 C.3   104  VAL104      0.0019
    117  N         66.8000   64.9070   26.0260 N.3   107  MET107     -0.1230
    118  CA        65.6320   64.1590   25.5570 C.3   107  MET107      0.1702
    119  C         65.8910   62.6790   25.4320 C.2   107  MET107      0.2592
    120  O         66.9910   62.2660   25.0430 O.2   107  MET107     -0.2718
    121  CB        65.1810   64.6730   24.2060 C.3   107  MET107      0.0401
    122  CG        64.9160   66.1460   24.1860 C.3   107  MET107      0.0596
    123  SD        64.5260   66.6450   22.5330 S.3   107  MET107     -0.1393
    124  CE        62.8160   66.2460   22.4970 C.3   107  MET107      0.0692
    125  N         64.8630   61.8920   25.7550 N.am  108  ARG108     -0.1980
    126  CA        64.9240   60.4320   25.6840 C.3   108  ARG108      0.1597
    127  C         63.7080   59.9570   24.9070 C.2   108  ARG108      0.2287
    128  O         62.6000   60.4480   25.1010 O.2   108  ARG108     -0.2864
    129  CB        64.9240   59.7880   27.0900 C.3   108  ARG108      0.0334
    130  CG        66.0480   60.2630   28.0420 C.3   108  ARG108      0.0492
    131  CD        66.2110   59.4170   29.3410 C.3   108  ARG108      0.2205
    132  NE        65.0310   59.3860   30.2270 N.pl3 108  ARG108     -0.0865
    133  CZ        64.9630   58.7400   31.4030 C.cat 108  ARG108      0.5346
    134  NH1       66.0080   58.0590   31.8700 N.pl3 108  ARG108      0.1354
    135  NH2       63.8350   58.7540   32.1140 N.pl3 108  ARG108      0.1354
    136  N         72.3740   45.0530   26.3440 N.3   136  TYR136     -0.1241
    137  CA        72.7780   46.4480   26.3820 C.3   136  TYR136      0.1605
    138  C         73.8760   46.8470   25.3990 C.2   136  TYR136      0.2264
    139  O         73.7560   47.8380   24.6820 O.2   136  TYR136     -0.2867
    140  CB        73.2270   46.7830   27.8000 C.3   136  TYR136      0.0534
    141  CG        73.4610   48.2490   28.0240 C.ar  136  TYR136     -0.0201
    142  CD1       72.3980   49.1490   28.0420 C.ar  136  TYR136     -0.0009
    143  CD2       74.7430   48.7430   28.2200 C.ar  136  TYR136     -0.0009
    144  CE1       72.6110   50.5140   28.2540 C.ar  136  TYR136      0.0417
    145  CE2       74.9650   50.1080   28.4320 C.ar  136  TYR136      0.0417
    146  CZ        73.8960   50.9830   28.4470 C.ar  136  TYR136      0.1957
    147  OH        74.1190   52.3240   28.6510 O.3   136  TYR136     -0.2866
    148  N         72.8110   47.2160   21.9860 N.3   139  ILE139     -0.1231
    149  CA        72.0390   48.4430   21.8840 C.3   139  ILE139      0.1692
    150  C         72.9980   49.5910   21.6610 C.2   139  ILE139      0.2591
    151  O         72.8690   50.3240   20.6900 O.2   139  ILE139     -0.2718
    152  CB        71.2550   48.7190   23.1690 C.3   139  ILE139      0.0266
    153  CG1       70.3970   47.5000   23.5180 C.3   139  ILE139      0.0019
    154  CG2       70.3630   49.9430   22.9880 C.3   139  ILE139      0.0020
    155  CD1       69.2560   47.2440   22.5360 C.3   139  ILE139      0.0001
    156  N         73.9590   49.7500   22.5630 N.am  140  VAL140     -0.1980
    157  CA        74.9330   50.8250   22.4120 C.3   140  VAL140      0.1595
    158  C         75.5590   50.7650   21.0190 C.2   140  VAL140      0.2287
    159  O         75.4500   51.7070   20.2140 O.2   140  VAL140     -0.2864
    160  CB        76.0680   50.7120   23.4500 C.3   140  VAL140      0.0276
    161  CG1       77.1250   51.7820   23.1820 C.3   140  VAL140      0.0022
    162  CG2       75.5070   50.8620   24.8450 C.3   140  VAL140      0.0022
    163  N         73.5050   51.8020   18.2930 N.3   143  HIS143     -0.1226
    164  CA        73.2890   53.2400   18.3710 C.3   143  HIS143      0.1752
    165  C         74.4800   53.9240   17.7170 C.2   143  HIS143      0.2595
    166  O         74.3230   54.7670   16.8130 O.2   143  HIS143     -0.2718
    167  CB        73.1780   53.7150   19.8270 C.3   143  HIS143      0.0759
    168  CG        73.0640   55.2070   19.9780 C.ar  143  HIS143      0.0818
    169  ND1       71.8750   55.9040   19.9430 N.ar  143  HIS143     -0.2268
    170  CD2       74.0300   56.1440   20.1580 C.ar  143  HIS143      0.1154
    171  CE1       72.1530   57.2090   20.1010 C.ar  143  HIS143      0.1986
    172  NE2       73.4500   57.4050   20.2350 N.ar  143  HIS143     -0.2212
    173  N         75.6760   53.5560   18.1670 N.am  144  GLU144     -0.1979
    174  CA        76.8650   54.1690   17.6090 C.3   144  GLU144      0.1602
    175  C         77.0250   53.8780   16.1190 C.2   144  GLU144      0.2287
    176  O         77.1450   54.8070   15.3020 O.2   144  GLU144     -0.2864
    177  CB        78.0910   53.7310   18.4010 C.3   144  GLU144      0.0415
    178  CG        78.0990   54.3060   19.8040 C.3   144  GLU144      0.1163
    179  CD        77.8990   55.8280   19.8440 C.2   144  GLU144      0.3649
    180  OE1       77.9340   56.3880   20.9520 O.co2 144  GLU144     -0.2457
    181  OE2       77.7050   56.4770   18.7920 O.co2 144  GLU144     -0.2457
    182  N         75.2140   56.1090   13.7190 N.3   147  HIS147     -0.1241
    183  CA        75.8160   57.4080   13.4830 C.3   147  HIS147      0.1621
    184  C         76.7600   57.4100   12.2840 C.2   147  HIS147      0.2264
    185  O         76.9940   58.4580   11.6760 O.2   147  HIS147     -0.2867
    186  CB        76.5910   57.8330   14.7270 C.3   147  HIS147      0.0745
    187  CG        75.7320   58.3650   15.8240 C.ar  147  HIS147      0.0817
    188  ND1       75.3970   59.6940   15.9610 N.ar  147  HIS147     -0.2268
    189  CD2       75.1310   57.7200   16.8550 C.ar  147  HIS147      0.1154
    190  CE1       74.6250   59.8140   17.0480 C.ar  147  HIS147      0.1986
    191  NE2       74.4330   58.6430   17.6250 N.ar  147  HIS147     -0.2212
    192  N         63.8340   65.0350   29.3290 N.3   166  ASN166     -0.1240
    193  CA        64.1320   64.3400   30.5730 C.3   166  ASN166      0.1653
    194  C         63.4260   65.0540   31.7210 C.2   166  ASN166      0.2266
    195  O         62.6910   64.4350   32.4970 O.2   166  ASN166     -0.2867
    196  CB        65.6530   64.3050   30.8170 C.3   166  ASN166      0.1155
    197  CG        66.4130   63.5710   29.7150 C.2   166  ASN166      0.2627
    198  OD1       67.6440   63.4970   29.7260 O.2   166  ASN166     -0.2716
    199  ND2       65.6790   63.0270   28.7580 N.am  166  ASN166     -0.0877
@<TRIPOS>BOND
     1   185   184    2
     2   184   183    1
     3   183   182    1
     4   183   186    1
     5   186   187    1
     6   176   175    2
     7    30    31    1
     8   187   188   ar
     9   187   189   ar
    10   188   190   ar
    11   175   174    1
    12    31    32    1
    13    31    34    1
    14   166   165    2
    15    32    33    2
    16   189   191   ar
    17   190   191   ar
    18   174   173    1
    19   174   177    1
    20   165   173   am
    21   165   164    1
    22    34    35    1
    23    35    36    1
    24   163   164    1
    25   164   167    1
    26   177   178    1
    27   181   179   ar
    28    36    37    2
    29    36    38   am
    30   116   114    1
    31   101   100    1
    32   178   179    1
    33   167   168    1
    34   179   180   ar
    35   169   168   ar
    36   169   171   ar
    37   168   170   ar
    38   171   172   ar
    39   170   172   ar
    40   159   158    2
    41   100    97    1
    42   114   115    1
    43   114   111    1
    44   151   150    2
    45    90    89   ar
    46   110   111    1
    47   158   157    1
    48   111   112    1
    49    91    89   ar
    50    89    88    1
    51   150   149    1
    52   150   156   am
    53   149   148    1
    54   149   152    1
    55    97    98    1
    56    97    96    1
    57   104   105    2
    58   104   103    1
    59   157   156    1
    60   157   160    1
    61    98    99    2
    62    98   102   am
    63   124   123    1
    64   123   122    1
    65   155   153    1
    66   112   113    2
    67   102   103    1
    68    28    29    2
    69    28    27    1
    70    96    94   am
    71   154   152    1
    72    88    87    1
    73    87    84    1
    74   106   103    1
    75   106   107    1
    76   152   153    1
    77   161   160    1
    78   160   162    1
    79    27    26    1
    80    94    95    2
    81    94    93    1
    82   108   107    1
    83   122   121    1
    84   107   109    1
    85   121   118    1
    86    86    85    2
    87    85    84    1
    88    85    92   am
    89    84    83    1
    90    61    60    2
    91    93    92    1
    92   139   138    2
    93    83    71   am
    94   127   128    2
    95   127   126    1
    96    26    21   am
    97    58    59    1
    98   120   119    2
    99   138   137    1
   100   119   118    1
   101   119   125   am
   102    62    59    1
   103    62    63    1
   104    60    59    1
   105    60    69   am
   106   118   117    1
   107   126   125    1
   108   126   129    1
   109    22    21    2
   110    21    20    1
   111    71    70    1
   112    71    72    2
   113   136   137    1
   114    70    69    1
   115    70    73    1
   116   137   140    1
   117    81    79   ar
   118    81    82   ar
   119    63    65   ar
   120    63    64   ar
   121    79    76   ar
   122    82    80   ar
   123    65    67   ar
   124   129   130    1
   125    19    20    1
   126    19    17   am
   127     5     2    1
   128    20    23    1
   129    23    24    1
   130    23    25    1
   131    64    66   ar
   132    76    78   ar
   133    76    74   ar
   134    80    78   ar
   135    73    74    1
   136    16    17    1
   137    16    15    1
   138    78    77   ar
   139    17    18    2
   140   140   141    1
   141    74    75   ar
   142   141   142   ar
   143   141   143   ar
   144   142   144   ar
   145   130   131    1
   146    67    68   ar
   147   143   145   ar
   148   144   146   ar
   149    77    75   ar
   150   145   146   ar
   151   146   147    1
   152    66    68   ar
   153    15     8   am
   154     2     1    1
   155     2     3    1
   156   199   197   am
   157     4     3    2
   158   192   193    1
   159     3     6   am
   160   131   132    1
   161   197   198    2
   162   197   196    1
   163     8     9    2
   164     8     7    1
   165     6     7    1
   166   132   133    2
   167   193   196    1
   168   193   194    1
   169     7    10    1
   170   133   134    1
   171   133   135    1
   172   194   195    2
   173    10    11    1
   174    57    55    1
   175    55    52    1
   176    55    56    1
   177    11    12    1
   178    52    53    1
   179    52    51    1
   180    53    54    2
   181    12    14   ar
   182    12    13   ar
   183    46    48   ar
   184    46    44   ar
   185    48    49   ar
   186    42    41    2
   187    43    44    1
   188    43    40    1
   189    44    45   ar
   190    49    50    1
   191    49    47   ar
   192    39    40    1
   193    45    47   ar
   194    41    40    1
