@<TRIPOS>MOLECULE
tmp/1t02A00.pdb
 131 124 0 0 0
SMALL
GASTEIGER

@<TRIPOS>ATOM
      1  N         79.1690  134.6430  114.7980 N.3    80  GLU80      -0.1231
      2  CA        79.2800  134.1260  113.4630 C.3    80  GLU80       0.1684
      3  C         78.1160  133.2430  113.0960 C.2    80  GLU80       0.2434
      4  O         77.7770  132.3250  113.8140 O.2    80  GLU80      -0.2733
      5  CB        80.5650  133.3470  113.3570 C.3    80  GLU80       0.0402
      6  CG        80.8130  132.8090  111.9990 C.3    80  GLU80       0.1161
      7  CD        82.0980  132.0820  111.9300 C.2    80  GLU80       0.3649
      8  OE1       82.9180  132.1090  112.9210 O.co2  80  GLU80      -0.2457
      9  OE2       82.4070  131.5070  110.8280 O.co2  80  GLU80      -0.2457
     10  N         77.5060  133.5000  111.9440 N.am   81  PRO81      -0.2718
     11  CA        76.3610  132.7240  111.4680 C.3    81  PRO81       0.1535
     12  C         76.6990  131.2960  111.0700 C.2    81  PRO81       0.2599
     13  O         77.8910  130.9230  110.9450 O.2    81  PRO81      -0.2715
     14  CB        75.8970  133.5230  110.2590 C.3    81  PRO81       0.0310
     15  CG        77.1480  134.1470  109.7840 C.3    81  PRO81       0.0237
     16  CD        77.8240  134.6000  111.0280 C.3    81  PRO81       0.0939
     17  N         75.6190  130.5290  110.8820 N.am   82  SER82      -0.1936
     18  CA        75.6270  129.1280  110.4540 C.3    82  SER82       0.2055
     19  C         76.1650  128.1650  111.5230 C.2    82  SER82       0.2642
     20  O         75.9540  126.9470  111.4540 O.2    82  SER82      -0.2714
     21  CB        76.4950  128.9830  109.2040 C.3    82  SER82       0.2130
     22  OG        75.9360  129.7480  108.1420 O.3    82  SER82      -0.2179
     23  N         76.8580  128.6840  112.5130 N.am   83  ILE83      -0.1977
     24  CA        77.4040  127.8150  113.5650 C.3    83  ILE83       0.1596
     25  C         76.2780  127.0320  114.2300 C.2    83  ILE83       0.2287
     26  O         76.3340  125.8070  114.3080 O.2    83  ILE83      -0.2864
     27  CB        78.1370  128.6220  114.6260 C.3    83  ILE83       0.0276
     28  CG1       79.3940  129.2830  114.0710 C.3    83  ILE83       0.0022
     29  CG2       78.4910  127.7280  115.7980 C.3    83  ILE83       0.0022
     30  CD1       80.1590  130.0870  115.0720 C.3    83  ILE83       0.0001
     31  N         74.4190  124.6410  111.7620 N.3    86  ALA86      -0.1245
     32  CA        75.2160  123.4700  111.4230 C.3    86  ALA86       0.1562
     33  C         75.2950  122.4920  112.5710 C.2    86  ALA86       0.2260
     34  O         75.1770  121.2920  112.3810 O.2    86  ALA86      -0.2867
     35  CB        76.5870  123.8940  111.0280 C.3    86  ALA86       0.0290
     36  N         96.0980  123.6510  107.0920 N.3   258  ARG258     -0.1245
     37  CA        94.7080  123.2180  107.0760 C.3   258  ARG258      0.1563
     38  C         94.2570  122.8480  108.4790 C.2   258  ARG258      0.2260
     39  O         93.0960  123.0270  108.8480 O.2   258  ARG258     -0.2867
     40  CB        94.5320  121.9930  106.2000 C.3   258  ARG258      0.0307
     41  CG        93.2410  121.2510  106.4660 C.3   258  ARG258      0.0489
     42  CD        92.1610  121.6190  105.4820 C.3   258  ARG258      0.2205
     43  NE        91.2550  122.6700  105.9250 N.pl3 258  ARG258     -0.0865
     44  CZ        90.0830  122.4420  106.4930 C.cat 258  ARG258      0.5346
     45  NH1       89.6490  121.2070  106.7250 N.pl3 258  ARG258      0.1354
     46  NH2       89.3310  123.4680  106.7870 N.pl3 258  ARG258      0.1354
     47  N         92.9280  125.6380  110.5870 N.3   261  THR261     -0.1203
     48  CA        91.5980  125.9650  110.1370 C.3   261  THR261      0.1994
     49  C         90.5940  124.9000  110.5670 C.2   261  THR261      0.2617
     50  O         89.4730  125.2300  110.9350 O.2   261  THR261     -0.2717
     51  CB        91.5740  126.0510  108.6380 C.3   261  THR261      0.1784
     52  OG1       92.6390  126.8830  108.1700 O.3   261  THR261     -0.2211
     53  CG2       90.2710  126.6280  108.1670 C.3   261  THR261      0.0376
     54  N         91.0030  123.6320  110.5060 N.am  262  HIS262     -0.1975
     55  CA        90.1920  122.4530  110.8650 C.3   262  HIS262      0.1656
     56  C         89.8180  122.5580  112.3250 C.2   262  HIS262      0.2291
     57  O         88.6850  122.3710  112.6860 O.2   262  HIS262     -0.2864
     58  CB        91.0290  121.2020  110.6430 C.3   262  HIS262      0.0771
     59  CG        90.2780  119.9170  110.7920 C.ar  262  HIS262      0.0820
     60  ND1       90.2540  119.2040  111.9680 N.ar  262  HIS262     -0.2267
     61  CD2       89.5970  119.1730  109.8900 C.ar  262  HIS262      0.1154
     62  CE1       89.5940  118.0740  111.7860 C.ar  262  HIS262      0.1986
     63  NE2       89.1860  118.0300  110.5330 N.ar  262  HIS262     -0.2212
     64  N         89.9050  125.3270  114.1270 N.3   264  LYS264     -0.1231
     65  CA        89.1570  126.5590  114.3690 C.3   264  LYS264      0.1693
     66  C         87.7000  126.2090  114.2330 C.2   264  LYS264      0.2592
     67  O         86.8650  126.6630  115.0170 O.2   264  LYS264     -0.2718
     68  CB        89.5130  127.6300  113.3390 C.3   264  LYS264      0.0285
     69  CG        88.8270  128.9850  113.5010 C.3   264  LYS264      0.0035
     70  CD        87.4420  129.0780  112.8280 C.3   264  LYS264      0.0206
     71  CE        86.9460  130.5000  112.8710 C.3   264  LYS264      0.1093
     72  NZ        85.4670  130.6090  112.7800 N.3   264  LYS264     -0.1314
     73  N         87.3990  125.4210  113.2140 N.am  265  GLY265     -0.1957
     74  CA        86.0450  124.9570  113.0080 C.3   265  GLY265      0.1869
     75  C         85.5220  124.2440  114.2380 C.2   265  GLY265      0.2309
     76  O         84.3750  124.4390  114.6150 O.2   265  GLY265     -0.2863
     77  N         84.6850  126.5600  117.0980 N.3   268  ASN268     -0.1240
     78  CA        83.5620  127.3850  116.6710 C.3   268  ASN268      0.1653
     79  C         82.2970  126.9920  117.3930 C.2   268  ASN268      0.2266
     80  O         81.3740  127.7930  117.5240 O.2   268  ASN268     -0.2867
     81  CB        83.3090  127.1860  115.1990 C.3   268  ASN268      0.1155
     82  CG        83.6660  128.3710  114.3960 C.2   268  ASN268      0.2627
     83  OD1       83.9420  129.4430  114.9230 O.2   268  ASN268     -0.2716
     84  ND2       83.6920  128.1870  113.0850 N.am  268  ASN268     -0.0877
     85  N         80.2340  120.0770  115.0650 N.3   361  GLN361     -0.1231
     86  CA        80.6000  121.2730  114.3340 C.3   361  GLN361      0.1698
     87  C         81.6420  120.9590  113.2600 C.2   361  GLN361      0.2592
     88  O         81.4630  121.3230  112.0970 O.2   361  GLN361     -0.2718
     89  CB        81.1080  122.3270  115.3160 C.3   361  GLN361      0.0381
     90  CG        81.2190  123.7210  114.7390 C.3   361  GLN361      0.0905
     91  CD        79.9060  124.2550  114.2010 C.2   361  GLN361      0.2608
     92  OE1       79.8630  124.8100  113.1120 O.2   361  GLN361     -0.2717
     93  NE2       78.8530  124.1420  114.9940 N.am  361  GLN361     -0.0878
     94  N         82.6980  120.2440  113.6410 N.am  362  ASN362     -0.1974
     95  CA        83.7490  119.8660  112.7020 C.3   362  ASN362      0.1688
     96  C         83.1620  119.0750  111.5360 C.2   362  ASN362      0.2292
     97  O         83.5490  119.2510  110.3880 O.2   362  ASN362     -0.2864
     98  CB        84.8220  119.0340  113.3990 C.3   362  ASN362      0.1181
     99  CG        85.8590  118.4920  112.4320 C.2   362  ASN362      0.2629
    100  OD1       86.5990  119.2380  111.8200 O.2   362  ASN362     -0.2716
    101  ND2       85.9160  117.1850  112.3040 N.am  362  ASN362     -0.0877
    102  N         80.0150  119.2310  110.4680 N.3   364  GLY364     -0.1210
    103  CA        79.2000  120.1170  109.6620 C.3   364  GLY364      0.1956
    104  C         80.0050  120.9420  108.6720 C.2   364  GLY364      0.2612
    105  O         79.5650  121.1390  107.5420 O.2   364  GLY364     -0.2717
    106  N         81.1300  121.4940  109.1110 N.am  365  ALA365     -0.1965
    107  CA        81.9810  122.2740  108.2290 C.3   365  ALA365      0.1728
    108  C         82.5530  121.4060  107.1250 C.2   365  ALA365      0.2616
    109  O         82.5070  121.7930  105.9720 O.2   365  ALA365     -0.2715
    110  CB        83.1150  122.9270  109.0020 C.3   365  ALA365      0.0334
    111  N         83.0540  120.2400  107.4920 N.am  366  MET366     -0.1977
    112  CA        83.6440  119.3470  106.5230 C.3   366  MET366      0.1605
    113  C         82.6560  118.8980  105.4700 C.2   366  MET366      0.2287
    114  O         82.9960  118.8450  104.2940 O.2   366  MET366     -0.2864
    115  CB        84.2910  118.1740  107.2250 C.3   366  MET366      0.0413
    116  CG        85.5160  118.5890  107.9770 C.3   366  MET366      0.0598
    117  SD        86.0950  117.2170  108.8280 S.3   366  MET366     -0.1393
    118  CE        86.9760  116.4530  107.5320 C.3   366  MET366      0.0692
    119  N         80.1150  120.5040  104.4140 N.3   368  ALA368     -0.1231
    120  CA        79.9450  121.6680  103.5710 C.3   368  ALA368      0.1694
    121  C         81.1120  121.7820  102.5870 C.2   368  ALA368      0.2591
    122  O         80.8890  122.0850  101.4120 O.2   368  ALA368     -0.2718
    123  CB        79.8850  122.8820  104.4110 C.3   368  ALA368      0.0304
    124  N         82.3330  121.6920  103.0980 N.am  369  LEU369     -0.1980
    125  CA        83.5330  121.7450  102.2620 C.3   369  LEU369      0.1596
    126  C         83.6110  120.6320  101.2180 C.2   369  LEU369      0.2287
    127  O         83.8860  120.9040  100.0510 O.2   369  LEU369     -0.2864
    128  CB        84.7950  121.7970  103.1200 C.3   369  LEU369      0.0297
    129  CG        85.9180  122.8200  102.8030 C.3   369  LEU369      0.0022
    130  CD1       85.6590  123.7020  101.5940 C.3   369  LEU369      0.0001
    131  CD2       86.0550  123.6790  104.0370 C.3   369  LEU369      0.0001
@<TRIPOS>BOND
     1   127   126    2
     2   126   125    1
     3   122   121    2
     4   130   129    1
     5   125   124    1
     6   125   128    1
     7   121   124   am
     8   121   120    1
     9   129   128    1
    10   129   131    1
    11   120   123    1
    12   120   119    1
    13   114   113    2
    14   113   112    1
    15    42    43    1
    16    42    41    1
    17    43    44    2
    18   109   108    2
    19    40    41    1
    20    40    37    1
    21    44    45    1
    22    44    46    1
    23   112   115    1
    24   112   111    1
    25    37    36    1
    26    37    38    1
    27   108   111   am
    28   108   107    1
    29   115   116    1
    30   118   117    1
    31   105   104    2
    32   116   117    1
    33    22    21    1
    34    53    51    1
    35    52    51    1
    36   107   110    1
    37   107   106    1
    38    38    39    2
    39    51    48    1
    40   104   106   am
    41   104   103    1
    42    21    18    1
    43   103   102    1
    44    15    14    1
    45    15    16    1
    46    61    63   ar
    47    61    59   ar
    48    48    49    1
    49    48    47    1
    50    14    11    1
    51    97    96    2
    52    18    17    1
    53    18    19    1
    54    54    49   am
    55    54    55    1
    56    63    62   ar
    57    49    50    2
    58    58    59    1
    59    58    55    1
    60    59    60   ar
    61     9     7   ar
    62    55    56    1
    63    17    12   am
    64    13    12    2
    65    16    10    1
    66    35    32    1
    67    12    11    1
    68    32    31    1
    69    32    33    1
    70    20    19    2
    71    11    10    1
    72    19    23   am
    73    96    95    1
    74    62    60   ar
    75   100    99    2
    76     7     6    1
    77     7     8   ar
    78    10     3   am
    79     6     5    1
    80    88    87    2
    81   101    99   am
    82    56    57    2
    83    34    33    2
    84    99    98    1
    85    23    24    1
    86    95    98    1
    87    95    94    1
    88    72    71    1
    89    70    71    1
    90    70    69    1
    91    74    73    1
    92    74    75    1
    93    84    82   am
    94     3     2    1
    95     3     4    2
    96    92    91    2
    97    73    66   am
    98    87    94   am
    99    87    86    1
   100    68    69    1
   101    68    65    1
   102     5     2    1
   103     2     1    1
   104    24    25    1
   105    24    27    1
   106    28    27    1
   107    28    30    1
   108    64    65    1
   109    91    90    1
   110    91    93   am
   111    25    26    2
   112    66    65    1
   113    66    67    2
   114    75    76    2
   115    86    85    1
   116    86    89    1
   117    82    83    2
   118    82    81    1
   119    27    29    1
   120    90    89    1
   121    81    78    1
   122    78    77    1
   123    78    79    1
   124    79    80    2
