@<TRIPOS>MOLECULE
tmp/1t05C00.pdb
 152 146 0 0 0
SMALL
GASTEIGER

@<TRIPOS>ATOM
      1  N         69.5970   69.5360  -67.0410 N.3    63  ILE63      -0.1245
      2  CA        69.6460   69.7520  -65.6160 C.3    63  ILE63       0.1561
      3  C         70.8800   68.9550  -65.2030 C.2    63  ILE63       0.2260
      4  O         71.2670   67.9860  -65.8730 O.2    63  ILE63      -0.2867
      5  CB        68.3710   69.2270  -64.9340 C.3    63  ILE63       0.0252
      6  CG1       68.2900   67.7070  -65.0470 C.3    63  ILE63       0.0019
      7  CG2       67.1600   69.8510  -65.5990 C.3    63  ILE63       0.0019
      8  CD1       67.0830   67.0910  -64.3590 C.3    63  ILE63       0.0001
      9  N         73.2790   66.4630  -62.9830 N.3    65  LYS65      -0.1231
     10  CA        73.0490   65.2040  -62.2830 C.3    65  LYS65       0.1693
     11  C         73.5990   65.2550  -60.8770 C.2    65  LYS65       0.2591
     12  O         74.4040   66.1180  -60.5430 O.2    65  LYS65      -0.2718
     13  CB        73.6740   64.0150  -63.0300 C.3    65  LYS65       0.0285
     14  CG        72.9740   63.6530  -64.3430 C.3    65  LYS65       0.0035
     15  CD        73.2400   62.2180  -64.8140 C.3    65  LYS65       0.0206
     16  CE        72.5450   61.9590  -66.1480 C.3    65  LYS65       0.1093
     17  NZ        72.2850   60.5150  -66.4270 N.3    65  LYS65      -0.1314
     18  N         73.1410   64.3150  -60.0650 N.am   66  LYS66      -0.1980
     19  CA        73.5380   64.1820  -58.6660 C.3    66  LYS66       0.1596
     20  C         74.9370   64.6660  -58.3290 C.2    66  LYS66       0.2287
     21  O         75.1150   65.6870  -57.6530 O.2    66  LYS66      -0.2864
     22  CB        73.4130   62.7210  -58.2530 C.3    66  LYS66       0.0298
     23  CG        71.9910   62.2000  -58.3290 C.3    66  LYS66       0.0038
     24  CD        71.0840   62.9280  -57.3370 C.3    66  LYS66       0.0206
     25  CE        69.6750   62.3690  -57.3630 C.3    66  LYS66       0.1093
     26  NZ        68.8040   63.0220  -56.3480 N.3    66  LYS66      -0.1314
     27  N         72.3000   66.0480  -67.8400 N.3    72  ARG72      -0.1245
     28  CA        71.1850   65.1770  -68.1950 C.3    72  ARG72       0.1563
     29  C         70.3430   65.9200  -69.2240 C.2    72  ARG72       0.2260
     30  O         69.8320   67.0010  -68.9580 O.2    72  ARG72      -0.2867
     31  CB        70.3710   64.8790  -66.9420 C.3    72  ARG72       0.0307
     32  CG        69.0000   64.2580  -67.1600 C.3    72  ARG72       0.0489
     33  CD        68.3450   64.0090  -65.8020 C.3    72  ARG72       0.2205
     34  NE        69.2170   63.1660  -64.9780 N.pl3  72  ARG72      -0.0865
     35  CZ        69.0860   61.8440  -64.8630 C.cat  72  ARG72       0.5346
     36  NH1       68.1110   61.2430  -65.5080 N.pl3  72  ARG72       0.1354
     37  NH2       69.9370   61.1200  -64.1380 N.pl3  72  ARG72       0.1354
     38  N         67.1310   66.7300  -71.2300 N.3    74  LEU74      -0.1245
     39  CA        65.7090   66.5020  -71.0330 C.3    74  LEU74       0.1561
     40  C         64.8840   67.2360  -72.0760 C.2    74  LEU74       0.2260
     41  O         65.2110   68.3590  -72.4650 O.2    74  LEU74      -0.2867
     42  CB        65.2880   66.9820  -69.6600 C.3    74  LEU74       0.0270
     43  CG        66.2140   66.5840  -68.5260 C.3    74  LEU74       0.0019
     44  CD1       65.7540   67.3110  -67.2930 C.3    74  LEU74       0.0001
     45  CD2       66.2050   65.0810  -68.3200 C.3    74  LEU74       0.0001
     46  N         74.0240   50.5300  -60.6630 N.3   110  ASP110     -0.1225
     47  CA        73.1710   51.3280  -61.5380 C.3   110  ASP110      0.1805
     48  C         73.4840   50.9130  -62.9690 C.2   110  ASP110      0.2598
     49  O         74.4310   50.1560  -63.1840 O.2   110  ASP110     -0.2718
     50  CB        73.5020   52.8160  -61.3770 C.3   110  ASP110      0.1424
     51  CG        72.3000   53.7150  -61.6390 C.2   110  ASP110      0.3668
     52  OD1       71.4980   53.3670  -62.5290 O.co2 110  ASP110     -0.2456
     53  OD2       72.1450   54.7650  -60.9670 O.co2 110  ASP110     -0.2456
     54  N         72.6990   51.3790  -63.9400 N.am  111  VAL111     -0.1966
     55  CA        72.9760   51.0490  -65.3440 C.3   111  VAL111      0.1727
     56  C         73.1950   52.2850  -66.1930 C.2   111  VAL111      0.2617
     57  O         72.3710   53.1970  -66.2270 O.2   111  VAL111     -0.2715
     58  CB        71.8800   50.1520  -66.0050 C.3   111  VAL111      0.0290
     59  CG1       72.0020   50.1720  -67.5560 C.3   111  VAL111      0.0023
     60  CG2       72.1060   48.7280  -65.5830 C.3   111  VAL111      0.0023
     61  N         74.3210   52.2750  -66.8970 N.am  112  GLY112     -0.1940
     62  CA        74.7180   53.3900  -67.7300 C.3   112  GLY112      0.2014
     63  C         73.8320   53.8130  -68.8790 C.2   112  GLY112      0.2639
     64  O         73.5800   53.0300  -69.7970 O.2   112  GLY112     -0.2714
     65  N         73.3860   55.0700  -68.8300 N.am  113  ASP113     -0.1957
     66  CA        72.5440   55.6350  -69.8740 C.3   113  ASP113      0.1840
     67  C         71.5140   54.5780  -70.1860 C.2   113  ASP113      0.2622
     68  O         71.4690   54.0320  -71.3000 O.2   113  ASP113     -0.2715
     69  CB        73.4070   55.9480  -71.0950 C.3   113  ASP113      0.1450
     70  CG        74.6190   56.8090  -70.7340 C.2   113  ASP113      0.3671
     71  OD1       75.5830   56.8950  -71.5380 O.co2 113  ASP113     -0.2456
     72  OD2       74.5990   57.4040  -69.6260 O.co2 113  ASP113     -0.2456
     73  N         70.7140   54.2820  -69.1620 N.am  114  ALA114     -0.1963
     74  CA        69.6680   53.2790  -69.2440 C.3   114  ALA114      0.1728
     75  C         68.7260   53.6000  -70.3710 C.2   114  ALA114      0.2616
     76  O         68.7070   52.8850  -71.3800 O.2   114  ALA114     -0.2715
     77  CB        68.9050   53.2120  -67.9630 C.3   114  ALA114      0.0334
     78  N         67.9620   54.6830  -70.2070 N.am  115  TYR115     -0.1960
     79  CA        66.9920   55.0770  -71.2190 C.3   115  TYR115      0.1771
     80  C         67.5580   55.0420  -72.6030 C.2   115  TYR115      0.2619
     81  O         66.9120   54.5340  -73.5200 O.2   115  TYR115     -0.2715
     82  CB        66.4460   56.4670  -70.9600 C.3   115  TYR115      0.0574
     83  CG        65.2810   56.5100  -69.9980 C.ar  115  TYR115     -0.0198
     84  CD1       65.0080   55.4490  -69.1270 C.ar  115  TYR115     -0.0009
     85  CD2       64.4830   57.6460  -69.9230 C.ar  115  TYR115     -0.0009
     86  CE1       63.9720   55.5360  -68.2110 C.ar  115  TYR115      0.0417
     87  CE2       63.4540   57.7410  -69.0190 C.ar  115  TYR115      0.0417
     88  CZ        63.1950   56.6970  -68.1670 C.ar  115  TYR115      0.1957
     89  OH        62.1460   56.8470  -67.2840 O.3   115  TYR115     -0.2866
     90  N         68.7680   55.5660  -72.7520 N.am  116  PHE116     -0.1974
     91  CA        69.4120   55.6030  -74.0540 C.3   116  PHE116      0.1639
     92  C         70.0010   54.2990  -74.5340 C.2   116  PHE116      0.2290
     93  O         70.9670   54.3080  -75.2740 O.2   116  PHE116     -0.2864
     94  CB        70.4960   56.6680  -74.0780 C.3   116  PHE116      0.0560
     95  CG        69.9980   58.0240  -73.7260 C.ar  116  PHE116     -0.0200
     96  CD1       68.6810   58.3910  -74.0190 C.ar  116  PHE116     -0.0042
     97  CD2       70.8390   58.9500  -73.1240 C.ar  116  PHE116     -0.0042
     98  CE1       68.2040   59.6710  -73.7130 C.ar  116  PHE116     -0.0003
     99  CE2       70.3790   60.2340  -72.8120 C.ar  116  PHE116     -0.0003
    100  CZ        69.0550   60.5970  -73.1080 C.ar  116  PHE116     -0.0000
    101  N         64.3920   61.2170  -72.6770 N.3   151  GLN151     -0.1231
    102  CA        64.2520   61.4910  -71.2630 C.3   151  GLN151      0.1698
    103  C         63.1250   62.4560  -71.0100 C.2   151  GLN151      0.2592
    104  O         63.2370   63.6370  -71.3470 O.2   151  GLN151     -0.2718
    105  CB        65.5350   62.0780  -70.7010 C.3   151  GLN151      0.0381
    106  CG        65.6160   61.9160  -69.1920 C.3   151  GLN151      0.0905
    107  CD        66.7870   61.0470  -68.7370 C.2   151  GLN151      0.2608
    108  OE1       67.6730   61.5130  -68.0170 O.2   151  GLN151     -0.2717
    109  NE2       66.7910   59.7820  -69.1490 N.am  151  GLN151     -0.0878
    110  N         62.0410   61.9440  -70.4250 N.am  152  GLY152     -0.1957
    111  CA        60.8920   62.7810  -70.1150 C.3   152  GLY152      0.1869
    112  C         59.7190   62.6350  -71.0600 C.2   152  GLY152      0.2309
    113  O         59.0350   63.6090  -71.3700 O.2   152  GLY152     -0.2863
    114  N         59.4670   55.4550  -68.7470 N.3   157  PRO157     -0.2116
    115  CA        59.4990   54.6180  -67.5490 C.3   157  PRO157      0.1372
    116  C         58.9370   53.2380  -67.7800 C.2   157  PRO157      0.2244
    117  O         59.6950   52.2890  -67.9260 O.2   157  PRO157     -0.2868
    118  CB        58.7010   55.4390  -66.5600 C.3   157  PRO157      0.0268
    119  CG        59.2100   56.8310  -66.8710 C.3   157  PRO157      0.0207
    120  CD        59.0520   56.8240  -68.3850 C.3   157  PRO157      0.0892
    121  N         63.8200   50.5310  -61.5690 N.3   184  MET184     -0.1230
    122  CA        64.0420   51.3390  -62.7440 C.3   184  MET184      0.1702
    123  C         65.2890   50.7790  -63.3640 C.2   184  MET184      0.2592
    124  O         65.2020   49.7920  -64.0740 O.2   184  MET184     -0.2718
    125  CB        64.2400   52.7920  -62.3550 C.3   184  MET184      0.0401
    126  CG        64.4630   53.7310  -63.5080 C.3   184  MET184      0.0596
    127  SD        63.0640   53.9460  -64.5630 S.3   184  MET184     -0.1393
    128  CE        61.8250   54.5570  -63.4040 C.3   184  MET184      0.0692
    129  N         66.4520   51.3450  -63.0960 N.am  185  ASP185     -0.1974
    130  CA        67.6620   50.7830  -63.7140 C.3   185  ASP185      0.1709
    131  C         68.7160   50.3430  -62.6800 C.2   185  ASP185      0.2293
    132  O         69.6920   49.6840  -62.9960 O.2   185  ASP185     -0.2864
    133  CB        68.2540   51.8190  -64.6620 C.3   185  ASP185      0.1436
    134  CG        68.7350   53.0190  -63.9310 C.2   185  ASP185      0.3671
    135  OD1       68.1660   53.2820  -62.8500 O.co2 185  ASP185     -0.2456
    136  OD2       69.6730   53.6900  -64.4090 O.co2 185  ASP185     -0.2456
    137  N         78.8060   50.2380  -65.2850 N.3   217  PRO217     -0.2116
    138  CA        80.0540   50.9550  -65.0250 C.3   217  PRO217      0.1372
    139  C         80.4470   50.9100  -63.5710 C.2   217  PRO217      0.2244
    140  O         79.6090   50.6570  -62.7000 O.2   217  PRO217     -0.2868
    141  CB        79.7400   52.3910  -65.4610 C.3   217  PRO217      0.0268
    142  CG        78.3990   52.3080  -66.1470 C.3   217  PRO217      0.0207
    143  CD        77.7040   51.1970  -65.4450 C.3   217  PRO217      0.0892
    144  N         80.5430   52.0810  -60.6450 N.3   219  LYS219     -0.1245
    145  CA        79.6530   52.8970  -59.8860 C.3   219  LYS219      0.1561
    146  C         78.7890   51.7390  -59.3650 C.2   219  LYS219      0.2260
    147  O         77.5780   51.8420  -59.2210 O.2   219  LYS219     -0.2867
    148  CB        78.8950   53.7780  -60.8590 C.3   219  LYS219      0.0271
    149  CG        77.7520   54.5650  -60.2940 C.3   219  LYS219      0.0035
    150  CD        76.7100   54.7210  -61.3870 C.3   219  LYS219      0.0206
    151  CE        75.6650   55.7540  -61.0720 C.3   219  LYS219      0.1093
    152  NZ        74.9000   56.0090  -62.3240 N.3   219  LYS219     -0.1314
@<TRIPOS>BOND
     1    93    92    2
     2    92    91    1
     3    94    91    1
     4    94    95    1
     5    91    90    1
     6    96    95   ar
     7    96    98   ar
     8    95    97   ar
     9    98   100   ar
    10    81    80    2
    11    97    99   ar
    12   100    99   ar
    13    90    80   am
    14   101   102    1
    15    80    79    1
    16    41    40    2
    17    40    39    1
    18    71    70   ar
    19    76    75    2
    20   113   112    2
    21   104   103    2
    22    68    67    2
    23   102   103    1
    24   102   105    1
    25    38    39    1
    26    79    82    1
    27    79    78    1
    28    69    70    1
    29    69    66    1
    30   112   111    1
    31    39    42    1
    32   103   110   am
    33    82    83    1
    34    70    72   ar
    35   105   106    1
    36   110   111    1
    37    75    78   am
    38    75    74    1
    39    67    66    1
    40    67    73   am
    41    83    85   ar
    42    83    84   ar
    43    85    87   ar
    44    66    65    1
    45    64    63    2
    46    42    43    1
    47    74    73    1
    48    74    77    1
    49    29    30    2
    50    29    28    1
    51   106   107    1
    52   109   107   am
    53    84    86   ar
    54    87    88   ar
    55    63    65   am
    56    63    62    1
    57   114   120    1
    58   114   115    1
    59   107   108    2
    60    43    45    1
    61    43    44    1
    62   120   119    1
    63    86    88   ar
    64    28    27    1
    65    28    31    1
    66    88    89    1
    67   117   116    2
    68   116   115    1
    69    62    61    1
    70    59    58    1
    71   115   118    1
    72    32    31    1
    73    32    33    1
    74     1     2    1
    75    61    56   am
    76   119   118    1
    77    17    16    1
    78    57    56    2
    79    56    55    1
    80    16    15    1
    81   142   141    1
    82   142   143    1
    83    58    60    1
    84    58    55    1
    85     4     3    2
    86    33    34    1
    87     2     3    1
    88     2     5    1
    89     7     5    1
    90    36    35    1
    91   141   138    1
    92   143   137    1
    93    55    54    1
    94   137   138    1
    95     6     5    1
    96     6     8    1
    97   138   139    1
    98    34    35    2
    99    35    37    1
   100    15    14    1
   101   133   134    1
   102   133   130    1
   103   127   126    1
   104   127   128    1
   105   136   134   ar
   106    14    13    1
   107   124   123    2
   108    54    48   am
   109   134   135   ar
   110   130   129    1
   111   130   131    1
   112   139   140    2
   113   126   125    1
   114   123   129   am
   115   123   122    1
   116    49    48    2
   117    13    10    1
   118   132   131    2
   119     9    10    1
   120    48    47    1
   121   122   125    1
   122   122   121    1
   123    52    51   ar
   124   152   151    1
   125    10    11    1
   126    51    50    1
   127    51    53   ar
   128    47    50    1
   129    47    46    1
   130   150   151    1
   131   150   149    1
   132    11    12    2
   133    11    18   am
   134   148   149    1
   135   148   145    1
   136   144   145    1
   137    18    19    1
   138   145   146    1
   139   146   147    2
   140    19    20    1
   141    19    22    1
   142    23    22    1
   143    23    24    1
   144    20    21    2
   145    25    24    1
   146    25    26    1
