@<TRIPOS>MOLECULE
tmp/1t0aC00.pdb
 88 82 0 0 0
SMALL
GASTEIGER

@<TRIPOS>ATOM
      1  N         96.0880    3.0480   12.6570 N.3     8  PHE8       -0.1241
      2  CA        96.5950    1.9130   11.9150 C.3     8  PHE8        0.1605
      3  C         98.1080    1.9190   11.9600 C.2     8  PHE8        0.2264
      4  O         98.7340    2.9530   11.7230 O.2     8  PHE8       -0.2867
      5  CB        96.1490    1.9750   10.4490 C.3     8  PHE8        0.0534
      6  CG        96.5560    0.7560    9.6250 C.ar    8  PHE8       -0.0203
      7  CD1       95.9280   -0.4660    9.8020 C.ar    8  PHE8       -0.0042
      8  CD2       97.6360    0.8070    8.7810 C.ar    8  PHE8       -0.0042
      9  CE1       96.3340   -1.6060    9.0710 C.ar    8  PHE8       -0.0003
     10  CE2       98.0100   -0.3130    8.0430 C.ar    8  PHE8       -0.0003
     11  CZ        97.3670   -1.5040    8.1990 C.ar    8  PHE8       -0.0000
     12  N        101.8550   -0.6800   11.2370 N.3    10  VAL10      -0.1245
     13  CA       102.5290   -1.9050   10.8160 C.3    10  VAL10       0.1561
     14  C        104.0010   -1.7950   11.1810 C.2    10  VAL10       0.2260
     15  O        104.6040   -0.7570   10.9780 O.2    10  VAL10      -0.2867
     16  CB       102.4390   -2.0620    9.2810 C.3    10  VAL10       0.0252
     17  CG1      103.3390   -3.1750    8.7610 C.3    10  VAL10       0.0019
     18  CG2      101.0140   -2.2900    8.8360 C.3    10  VAL10       0.0019
     19  N         96.3630   -7.8790   13.8520 N.3    99  ILE99      -0.1245
     20  CA        96.2640   -8.6710   12.6220 C.3    99  ILE99       0.1561
     21  C         97.6250   -9.3110   12.3940 C.2    99  ILE99       0.2260
     22  O         98.6020   -8.6540   12.0460 O.2    99  ILE99      -0.2867
     23  CB        95.8630   -7.8090   11.4270 C.3    99  ILE99       0.0252
     24  CG1       94.5490   -7.0510   11.6830 C.3    99  ILE99       0.0019
     25  CG2       95.6670   -8.6780   10.1820 C.3    99  ILE99       0.0019
     26  CD1       94.2660   -5.9180   10.6940 C.3    99  ILE99       0.0001
     27  N         95.0470  -13.5950    9.0390 N.3   132  THR132     -0.1218
     28  CA        94.5490  -13.4440    7.6610 C.3   132  THR132      0.1862
     29  C         94.6610  -14.7690    6.8790 C.2   132  THR132      0.2287
     30  O         94.7480  -14.7820    5.6170 O.2   132  THR132     -0.2866
     31  CB        95.3340  -12.3720    6.9480 C.3   132  THR132      0.1770
     32  OG1       96.7280  -12.6690    7.0090 O.3   132  THR132     -0.2211
     33  CG2       95.1400  -11.0040    7.6150 C.3   132  THR132      0.0375
     34  N         97.3130  -15.1870    4.2780 N.3   135  LEU135     -0.1231
     35  CA        97.3580  -14.2280    3.1780 C.3   135  LEU135      0.1693
     36  C         98.0030  -12.9090    3.5490 C.2   135  LEU135      0.2593
     37  O         97.8330  -12.4070    4.6680 O.2   135  LEU135     -0.2718
     38  CB        95.9570  -13.9380    2.6290 C.3   135  LEU135      0.0284
     39  CG        95.1560  -15.1260    2.1080 C.3   135  LEU135      0.0019
     40  CD1       93.8190  -14.6620    1.5120 C.3   135  LEU135      0.0001
     41  CD2       96.0160  -15.8950    1.1020 C.3   135  LEU135      0.0001
     42  N         98.7050  -12.3200    2.5780 N.am  136  GLY136     -0.1942
     43  CA        99.2970  -11.0060    2.7500 C.3   136  GLY136      0.2014
     44  C        100.5410  -11.0230    3.6150 C.2   136  GLY136      0.2639
     45  O        100.9260  -12.0760    4.1460 O.2   136  GLY136     -0.2714
     46  N        101.1420   -9.8510    3.8210 N.am  137  PHE137     -0.1959
     47  CA       102.3820   -9.7940    4.5800 C.3   137  PHE137      0.1771
     48  C        102.2010  -10.2520    6.0210 C.2   137  PHE137      0.2620
     49  O        103.1310  -10.8340    6.5770 O.2   137  PHE137     -0.2715
     50  CB       103.1010   -8.4140    4.5100 C.3   137  PHE137      0.0574
     51  CG       102.3380   -7.2770    5.1250 C.ar  137  PHE137     -0.0200
     52  CD1      102.4020   -7.0380    6.4850 C.ar  137  PHE137     -0.0042
     53  CD2      101.5980   -6.4290    4.3390 C.ar  137  PHE137     -0.0042
     54  CE1      101.7210   -5.9590    7.0500 C.ar  137  PHE137     -0.0003
     55  CE2      100.9390   -5.3500    4.8980 C.ar  137  PHE137     -0.0003
     56  CZ       100.9920   -5.1400    6.2620 C.ar  137  PHE137     -0.0000
     57  N        101.0500   -9.9930    6.6320 N.am  138  THR138     -0.1951
     58  CA       100.8180  -10.5410    7.9610 C.3   138  THR138      0.1897
     59  C        100.6850  -12.0360    7.9220 C.2   138  THR138      0.2313
     60  O        101.2440  -12.7240    8.7780 O.2   138  THR138     -0.2863
     61  CB        99.6140   -9.9570    8.7080 C.3   138  THR138      0.1794
     62  OG1       98.4130  -10.2320    8.0000 O.3   138  THR138     -0.2208
     63  CG2       99.6990   -8.4570    8.7500 C.3   138  THR138      0.0378
     64  N        102.0470  -14.1410    5.9540 N.3   140  ARG140     -0.1245
     65  CA       103.3590  -14.7300    5.7220 C.3   140  ARG140      0.1563
     66  C        104.3300  -14.4520    6.8650 C.2   140  ARG140      0.2260
     67  O        105.5090  -14.7090    6.7350 O.2   140  ARG140     -0.2867
     68  CB       103.9520  -14.2290    4.4050 C.3   140  ARG140      0.0307
     69  CG       103.1270  -14.6050    3.2160 C.3   140  ARG140      0.0489
     70  CD       103.7460  -14.1970    1.9040 C.3   140  ARG140      0.2205
     71  NE       104.1370  -12.7950    1.8130 N.pl3 140  ARG140     -0.0865
     72  CZ       103.3440  -11.8040    1.3710 C.cat 140  ARG140      0.5346
     73  NH1      102.0860  -12.0470    0.9780 N.pl3 140  ARG140      0.1354
     74  NH2      103.8220  -10.5670    1.3160 N.pl3 140  ARG140      0.1354
     75  N        100.1980   -6.0840   11.7570 N.3   145  ALA145     -0.1245
     76  CA        99.3770   -4.8870   11.5510 C.3   145  ALA145      0.1562
     77  C         98.3920   -4.7380   12.6790 C.2   145  ALA145      0.2260
     78  O         97.9510   -5.7230   13.2490 O.2   145  ALA145     -0.2867
     79  CB        98.6450   -4.9760   10.2080 C.3   145  ALA145      0.0290
     80  N         94.8520   -2.3500   13.8230 N.3   147  GLU147     -0.1245
     81  CA        93.8620   -1.3130   13.6760 C.3   147  GLU147      0.1567
     82  C         93.2330   -1.0220   15.0030 C.2   147  GLU147      0.2260
     83  O         92.9840   -1.9270   15.7700 O.2   147  GLU147     -0.2867
     84  CB        92.7670   -1.7920   12.7440 C.3   147  GLU147      0.0388
     85  CG        93.1950   -1.8970   11.3120 C.3   147  GLU147      0.1160
     86  CD        92.0350   -1.6730   10.3650 C.2   147  GLU147      0.3649
     87  OE1       91.4930   -0.5360   10.2320 O.co2 147  GLU147     -0.2457
     88  OE2       91.6120   -2.6910    9.8280 O.co2 147  GLU147     -0.2457
@<TRIPOS>BOND
     1    73    72    1
     2    41    39    1
     3    74    72    1
     4    72    71    2
     5    40    39    1
     6    71    70    1
     7    70    69    1
     8    39    38    1
     9    42    43    1
    10    42    36   am
    11    38    35    1
    12    43    44    1
    13    35    36    1
    14    35    34    1
    15    69    68    1
    16    36    37    2
    17    44    46   am
    18    44    45    2
    19    46    47    1
    20    53    55   ar
    21    53    51   ar
    22    68    65    1
    23    50    47    1
    24    50    51    1
    25    47    48    1
    26    55    56   ar
    27    51    52   ar
    28    30    29    2
    29    65    64    1
    30    65    66    1
    31    48    49    2
    32    48    57   am
    33    56    54   ar
    34    52    54   ar
    35    57    58    1
    36    67    66    2
    37    29    28    1
    38    31    32    1
    39    31    33    1
    40    31    28    1
    41    28    27    1
    42    59    58    1
    43    59    60    2
    44    58    61    1
    45    62    61    1
    46    10    11   ar
    47    10     8   ar
    48    11     9   ar
    49    61    63    1
    50    17    16    1
    51     8     6   ar
    52    18    16    1
    53     9     7   ar
    54    16    13    1
    55     6     7   ar
    56     6     5    1
    57    88    86   ar
    58    25    23    1
    59    79    76    1
    60    87    86   ar
    61    86    85    1
    62     5     2    1
    63    26    24    1
    64    13    14    1
    65    13    12    1
    66    15    14    2
    67    85    84    1
    68    23    24    1
    69    23    20    1
    70    76    75    1
    71    76    77    1
    72     4     3    2
    73     2     3    1
    74     2     1    1
    75    22    21    2
    76    21    20    1
    77    20    19    1
    78    77    78    2
    79    84    81    1
    80    81    80    1
    81    81    82    1
    82    82    83    2
