@<TRIPOS>MOLECULE
tmp/1t0iA00.pdb
 152 149 0 0 0
SMALL
GASTEIGER

@<TRIPOS>ATOM
      1  N         37.6100   90.3040   11.6850 N.3     9  SER9       -0.1217
      2  CA        37.5140   89.4560   10.5010 C.3     9  SER9        0.1889
      3  C         37.3160   87.9880   10.8640 C.2     9  SER9        0.2288
      4  O         37.8590   87.5080   11.8580 O.2     9  SER9       -0.2866
      5  CB        38.7790   89.5950    9.6530 C.3     9  SER9        0.2089
      6  OG        38.6160   88.9730    8.3910 O.3     9  SER9       -0.2183
      7  N         37.2250   85.9000    7.8730 N.3    11  ARG11      -0.1245
      8  CA        37.5870   85.3450    6.5720 C.3    11  ARG11       0.1563
      9  C         38.6710   84.2830    6.7370 C.2    11  ARG11       0.2260
     10  O         39.5190   84.3870    7.6220 O.2    11  ARG11      -0.2867
     11  CB        38.0690   86.4530    5.6300 C.3    11  ARG11       0.0307
     12  CG        36.9710   87.4080    5.1760 C.3    11  ARG11       0.0489
     13  CD        37.2990   88.1670    3.8980 C.3    11  ARG11       0.2205
     14  NE        38.6670   88.6820    3.9040 N.pl3  11  ARG11      -0.0865
     15  CZ        39.4950   88.6650    2.8630 C.cat  11  ARG11       0.5346
     16  NH1       40.7180   89.1630    2.9870 N.pl3  11  ARG11       0.1354
     17  NH2       39.1140   88.1550    1.6970 N.pl3  11  ARG11       0.1354
     18  N         43.1550   85.9370    5.9140 N.3    14  ARG14      -0.1231
     19  CA        42.9020   87.2930    6.3900 C.3    14  ARG14       0.1694
     20  C         44.1220   87.9480    7.0500 C.2    14  ARG14       0.2592
     21  O         45.0520   87.2690    7.4900 O.2    14  ARG14      -0.2718
     22  CB        41.7060   87.2820    7.3530 C.3    14  ARG14       0.0321
     23  CG        42.0700   87.1460    8.8240 C.3    14  ARG14       0.0489
     24  CD        41.8320   85.7640    9.4200 C.3    14  ARG14       0.2205
     25  NE        40.7310   85.7730   10.3820 N.pl3  14  ARG14      -0.0865
     26  CZ        40.6980   85.0690   11.5100 C.cat  14  ARG14       0.5346
     27  NH1       39.6440   85.1590   12.3070 N.pl3  14  ARG14       0.1354
     28  NH2       41.7040   84.2730   11.8530 N.pl3  14  ARG14       0.1354
     29  N         44.0960   89.2770    7.1120 N.am   15  VAL15      -0.1966
     30  CA        45.1830   90.0760    7.6730 C.3    15  VAL15       0.1727
     31  C         45.0270   90.2810    9.1790 C.2    15  VAL15       0.2616
     32  O         46.0000   90.5580    9.8760 O.2    15  VAL15      -0.2715
     33  CB        45.2310   91.4730    7.0050 C.3    15  VAL15       0.0290
     34  CG1       46.3010   92.3550    7.6400 C.3    15  VAL15       0.0023
     35  CG2       45.4680   91.3470    5.5100 C.3    15  VAL15       0.0023
     36  N         43.8020   90.1340    9.6750 N.am   16  CYS16      -0.1968
     37  CA        43.4640   90.5240   11.0450 C.3    16  CYS16       0.1712
     38  C         44.4270   90.0180   12.1250 C.2    16  CYS16       0.2296
     39  O         44.7900   90.7780   13.0200 O.2    16  CYS16      -0.2864
     40  CB        42.0320   90.1030   11.3880 C.3    16  CYS16       0.0983
     41  SG        41.2470   91.1570   12.6270 S.3    16  CYS16      -0.0798
     42  N         38.8650   95.1370   10.1530 N.3    93  PRO93      -0.2102
     43  CA        38.9790   95.5930    8.7680 C.3    93  PRO93       0.1504
     44  C         37.8190   96.5120    8.4160 C.2    93  PRO93       0.2576
     45  O         36.8910   96.6590    9.2130 O.2    93  PRO93      -0.2718
     46  CB        38.8640   94.2930    7.9770 C.3    93  PRO93       0.0282
     47  CG        37.9450   93.4640    8.7950 C.3    93  PRO93       0.0208
     48  CD        38.2740   93.7890   10.2320 C.3    93  PRO93       0.0893
     49  N         37.8740   97.1210    7.2390 N.am   94  GLN94      -0.1966
     50  CA        36.7640   97.9120    6.7320 C.3    94  GLN94       0.1733
     51  C         36.1880   97.2280    5.5010 C.2    94  GLN94       0.2616
     52  O         36.8960   97.0170    4.5190 O.2    94  GLN94      -0.2715
     53  CB        37.2350   99.3230    6.3770 C.3    94  GLN94       0.0408
     54  CG        36.2570  100.1130    5.5180 C.3    94  GLN94       0.0908
     55  CD        36.7460  101.5150    5.2240 C.2    94  GLN94       0.2608
     56  OE1       36.9440  101.8800    4.0660 O.2    94  GLN94      -0.2717
     57  NE2       36.9440  102.3030    6.2680 N.am   94  GLN94      -0.0878
     58  N         34.9100   96.8630    5.5660 N.am   95  TYR95      -0.1960
     59  CA        34.2110   96.3170    4.4100 C.3    95  TYR95       0.1771
     60  C         33.1870   97.3210    3.8970 C.2    95  TYR95       0.2620
     61  O         32.2040   97.6180    4.5760 O.2    95  TYR95      -0.2715
     62  CB        33.4950   95.0100    4.7580 C.3    95  TYR95       0.0574
     63  CG        34.3850   93.8800    5.2350 C.ar   95  TYR95      -0.0198
     64  CD1       33.8510   92.8260    5.9620 C.ar   95  TYR95      -0.0009
     65  CD2       35.7480   93.8550    4.9530 C.ar   95  TYR95      -0.0009
     66  CE1       34.6400   91.7850    6.4010 C.ar   95  TYR95       0.0417
     67  CE2       36.5490   92.8130    5.3920 C.ar   95  TYR95       0.0417
     68  CZ        35.9880   91.7820    6.1160 C.ar   95  TYR95       0.1957
     69  OH        36.7750   90.7430    6.5560 O.3    95  TYR95      -0.2866
     70  N         33.4220   97.8360    2.6930 N.am   96  ASN96      -0.1958
     71  CA        32.5110   98.7780    2.0570 C.3    96  ASN96       0.1819
     72  C         32.1780   99.9630    2.9600 C.2    96  ASN96       0.2621
     73  O         31.0100  100.2870    3.1770 O.2    96  ASN96      -0.2715
     74  CB        31.2430   98.0510    1.6080 C.3    96  ASN96       0.1195
     75  CG        31.5370   96.9340    0.6240 C.2    96  ASN96       0.2630
     76  OD1       32.2560   97.1310   -0.3570 O.2    96  ASN96      -0.2716
     77  ND2       30.9830   95.7550    0.8800 N.am   96  ASN96      -0.0877
     78  N         33.2260  100.5910    3.4900 N.am   97  TRP97      -0.1974
     79  CA        33.1080  101.8020    4.3020 C.3    97  TRP97       0.1640
     80  C         32.3810  101.5500    5.6230 C.2    97  TRP97       0.2290
     81  O         31.8220  102.4730    6.2170 O.2    97  TRP97      -0.2864
     82  CB        32.3970  102.9140    3.5210 C.3    97  TRP97       0.0576
     83  CG        33.1300  103.3770    2.2930 C.ar   97  TRP97       0.0006
     84  CD1       34.2280  102.8020    1.7160 C.ar   97  TRP97       0.0946
     85  CD2       32.8130  104.5200    1.4910 C.ar   97  TRP97       0.0152
     86  NE1       34.6100  103.5170    0.6070 N.ar   97  TRP97      -0.2442
     87  CE2       33.7580  104.5780    0.4460 C.ar   97  TRP97       0.0810
     88  CE3       31.8230  105.5080    1.5500 C.ar   97  TRP97       0.0012
     89  CZ2       33.7410  105.5770   -0.5260 C.ar   97  TRP97       0.0191
     90  CZ3       31.8080  106.4980    0.5840 C.ar   97  TRP97       0.0001
     91  CH2       32.7600  106.5250   -0.4390 C.ar   97  TRP97       0.0015
     92  N         41.9450   98.9620    9.9330 N.3   124  TYR124     -0.1227
     93  CA        42.9500   98.8470    8.8830 C.3   124  TYR124      0.1736
     94  C         42.3030   98.6710    7.5130 C.2   124  TYR124      0.2596
     95  O         41.1800   98.1810    7.3960 O.2   124  TYR124     -0.2718
     96  CB        43.9180   97.6940    9.1720 C.3   124  TYR124      0.0548
     97  CG        43.2560   96.3420    9.3050 C.ar  124  TYR124     -0.0200
     98  CD1       43.0860   95.5180    8.2000 C.ar  124  TYR124     -0.0009
     99  CD2       42.8110   95.8840   10.5380 C.ar  124  TYR124     -0.0009
    100  CE1       42.4850   94.2800    8.3170 C.ar  124  TYR124      0.0417
    101  CE2       42.2090   94.6470   10.6650 C.ar  124  TYR124      0.0417
    102  CZ        42.0480   93.8500    9.5520 C.ar  124  TYR124      0.1957
    103  OH        41.4490   92.6180    9.6740 O.3   124  TYR124     -0.2866
    104  N         43.0300   99.0780    6.4780 N.am  125  GLY125     -0.1942
    105  CA        42.5350   99.0220    5.1160 C.3   125  GLY125      0.2014
    106  C         43.4610   99.7690    4.1760 C.2   125  GLY125      0.2639
    107  O         44.5320  100.2160    4.5800 O.2   125  GLY125     -0.2714
    108  N         43.0540   99.9020    2.9190 N.am  126  GLY126     -0.1939
    109  CA        43.8260  100.6550    1.9480 C.3   126  GLY126      0.2014
    110  C         44.1750  102.0420    2.4560 C.2   126  GLY126      0.2638
    111  O         45.3180  102.4850    2.3360 O.2   126  GLY126     -0.2714
    112  N         43.1860  102.7270    3.0240 N.am  127  HIS127     -0.1973
    113  CA        43.3920  104.0520    3.6050 C.3   127  HIS127      0.1656
    114  C         43.1530  104.0590    5.1170 C.2   127  HIS127      0.2291
    115  O         42.5830  105.0060    5.6600 O.2   127  HIS127     -0.2864
    116  CB        42.4770  105.0750    2.9260 C.3   127  HIS127      0.0771
    117  CG        42.9830  105.5460    1.5990 C.ar  127  HIS127      0.0820
    118  ND1       42.7080  104.8870    0.4210 N.ar  127  HIS127     -0.2267
    119  CD2       43.7520  106.6090    1.2650 C.ar  127  HIS127      0.1154
    120  CE1       43.2830  105.5250   -0.5830 C.ar  127  HIS127      0.1986
    121  NE2       43.9230  106.5730   -0.0970 N.ar  127  HIS127     -0.2212
    122  N         41.2250  102.1910    6.9140 N.3   129  GLY129     -0.1225
    123  CA        39.9080  101.7520    7.3370 C.3   129  GLY129      0.1811
    124  C         39.2310  102.8140    8.1830 C.2   129  GLY129      0.2280
    125  O         38.5420  102.5030    9.1530 O.2   129  GLY129     -0.2866
    126  N         47.2850   99.4040    5.0650 N.3   155  ILE155     -0.1245
    127  CA        47.8870   98.1800    4.5410 C.3   155  ILE155      0.1561
    128  C         47.7640   98.1440    3.0210 C.2   155  ILE155      0.2260
    129  O         46.9230   98.8340    2.4440 O.2   155  ILE155     -0.2867
    130  CB        47.2040   96.9240    5.1370 C.3   155  ILE155      0.0252
    131  CG1       45.7110   96.8970    4.7880 C.3   155  ILE155      0.0019
    132  CG2       47.4080   96.8590    6.6430 C.3   155  ILE155      0.0019
    133  CD1       45.0930   95.5150    4.8540 C.3   155  ILE155      0.0001
    134  N         46.1880   96.4290    0.2620 N.3   157  VAL157     -0.1231
    135  CA        45.0680   95.5170    0.0470 C.3   157  VAL157      0.1692
    136  C         45.4390   94.4390   -0.9690 C.2   157  VAL157      0.2592
    137  O         46.0910   94.7210   -1.9740 O.2   157  VAL157     -0.2718
    138  CB        43.8150   96.2720   -0.4530 C.3   157  VAL157      0.0266
    139  CG1       42.7020   95.2960   -0.8220 C.3   157  VAL157      0.0020
    140  CG2       43.3250   97.2610    0.5970 C.3   157  VAL157      0.0020
    141  N         45.0270   93.2050   -0.6930 N.am  158  GLY158     -0.1957
    142  CA        45.2320   92.1010   -1.6140 C.3   158  GLY158      0.1869
    143  C         46.4550   91.2450   -1.3310 C.2   158  GLY158      0.2309
    144  O         46.5900   90.1590   -1.8960 O.2   158  GLY158     -0.2863
    145  N         48.1020   89.0610    1.2530 N.3   160  ILE160     -0.1245
    146  CA        48.2180   88.2450    2.4570 C.3   160  ILE160      0.1561
    147  C         49.2660   87.1590    2.2130 C.2   160  ILE160      0.2260
    148  O         49.1930   86.4390    1.2180 O.2   160  ILE160     -0.2867
    149  CB        46.8710   87.6000    2.8350 C.3   160  ILE160      0.0252
    150  CG1       45.7640   88.6550    2.8910 C.3   160  ILE160      0.0019
    151  CG2       46.9920   86.8880    4.1800 C.3   160  ILE160      0.0019
    152  CD1       44.3830   88.0810    3.1450 C.3   160  ILE160      0.0001
@<TRIPOS>BOND
     1   137   136    2
     2   144   143    2
     3   142   143    1
     4   142   141    1
     5   136   141   am
     6   136   135    1
     7   139   138    1
     8   120   121   ar
     9   120   118   ar
    10    89    91   ar
    11    89    87   ar
    12   138   135    1
    13   138   140    1
    14    91    90   ar
    15    76    75    2
    16   121   119   ar
    17   135   134    1
    18   118   117   ar
    19    87    86   ar
    20    87    85   ar
    21    90    88   ar
    22    86    84   ar
    23    75    77   am
    24    75    74    1
    25   148   147    2
    26   145   146    1
    27   119   117   ar
    28    85    88   ar
    29    85    83   ar
    30   117   116    1
    31    74    71    1
    32    17    15    1
    33    84    83   ar
    34   109   110    1
    35   109   108    1
    36    71    70    1
    37    71    72    1
    38   147   146    1
    39    83    82    1
    40   111   110    2
    41   129   128    2
    42   110   112   am
    43   146   149    1
    44    70    60   am
    45   149   150    1
    46   149   151    1
    47    15    16    1
    48    15    14    2
    49   150   152    1
    50   108   106   am
    51   116   113    1
    52    72    73    2
    53    72    78   am
    54   128   127    1
    55   112   113    1
    56    78    79    1
    57    82    79    1
    58   113   114    1
    59    60    59    1
    60    60    61    2
    61    13    14    1
    62    13    12    1
    63    56    55    2
    64   106   107    2
    65   106   105    1
    66    79    80    1
    67    59    62    1
    68    59    58    1
    69    52    51    2
    70   127   126    1
    71   127   130    1
    72    62    63    1
    73   131   133    1
    74   131   130    1
    75    65    63   ar
    76    65    67   ar
    77   105   104    1
    78   114   115    2
    79   130   132    1
    80    12    11    1
    81    55    54    1
    82    55    57   am
    83    63    64   ar
    84    67    68   ar
    85    51    58   am
    86    51    50    1
    87    35    33    1
    88    54    53    1
    89    80    81    2
    90    11     8    1
    91    18    19    1
    92    64    66   ar
    93    68    66   ar
    94    68    69    1
    95    53    50    1
    96    19    20    1
    97    19    22    1
    98   104    94   am
    99     8     9    1
   100     8     7    1
   101    50    49    1
   102     9    10    2
   103   122   123    1
   104    33    34    1
   105    33    30    1
   106    20    29   am
   107    20    21    2
   108    29    30    1
   109    49    44   am
   110   123   124    1
   111    22    23    1
   112    95    94    2
   113    94    93    1
   114    30    31    1
   115    46    43    1
   116    46    47    1
   117   124   125    2
   118    98   100   ar
   119    98    97   ar
   120   100   102   ar
   121     6     5    1
   122    44    43    1
   123    44    45    2
   124    43    42    1
   125    47    48    1
   126    23    24    1
   127    93    96    1
   128    93    92    1
   129    96    97    1
   130    31    36   am
   131    31    32    2
   132    97    99   ar
   133    24    25    1
   134   102   103    1
   135   102   101   ar
   136     5     2    1
   137    36    37    1
   138    42    48    1
   139    25    26    2
   140     2     3    1
   141     2     1    1
   142    99   101   ar
   143     3     4    2
   144    37    40    1
   145    37    38    1
   146    40    41    1
   147    26    28    1
   148    26    27    1
   149    38    39    2
