@<TRIPOS>MOLECULE
tmp/1t0oA01.pdb
 116 116 0 0 0
SMALL
GASTEIGER

@<TRIPOS>ATOM
      1  N         -2.7290   -5.1130   16.9710 N.3   157  ASN157     -0.1240
      2  CA        -1.5590   -4.5570   17.6290 C.3   157  ASN157      0.1653
      3  C         -0.5580   -3.9400   16.6670 C.2   157  ASN157      0.2266
      4  O          0.6370   -3.9500   16.9290 O.2   157  ASN157     -0.2867
      5  CB        -0.8810   -5.6280   18.4640 C.3   157  ASN157      0.1155
      6  CG         0.0270   -5.0490   19.5400 C.2   157  ASN157      0.2627
      7  OD1       -0.3120   -4.0570   20.2180 O.2   157  ASN157     -0.2716
      8  ND2        1.1910   -5.6760   19.6970 N.am  157  ASN157     -0.0877
      9  N          0.6690   -4.8940   13.9620 N.3   159  THR159     -0.1218
     10  CA         1.6800   -5.7920   13.4150 C.3   159  THR159      0.1862
     11  C          1.5820   -5.9930   11.9250 C.2   159  THR159      0.2287
     12  O          0.4990   -5.9790   11.3440 O.2   159  THR159     -0.2866
     13  CB         1.6520   -7.1640   14.1010 C.3   159  THR159      0.1770
     14  OG1        0.3240   -7.7010   14.0570 O.3   159  THR159     -0.2211
     15  CG2        1.9520   -7.0180   15.5600 C.3   159  THR159      0.0375
     16  N          5.0480    6.4170   20.4060 N.3   242  SER242     -0.1202
     17  CA         5.2940    5.8100   21.7020 C.3   242  SER242      0.2020
     18  C          6.1300    4.5240   21.5990 C.2   242  SER242      0.2618
     19  O          6.7770    4.1430   22.5560 O.2   242  SER242     -0.2717
     20  CB         3.9880    5.5790   22.4510 C.3   242  SER242      0.2103
     21  OG         3.2350    4.5550   21.8530 O.3   242  SER242     -0.2182
     22  N          6.1130    3.8690   20.4450 N.am  243  PHE243     -0.1975
     23  CA         6.8730    2.6350   20.2230 C.3   243  PHE243      0.1639
     24  C          8.2420    2.8840   19.5940 C.2   243  PHE243      0.2290
     25  O          9.0060    1.9570   19.3690 O.2   243  PHE243     -0.2864
     26  CB         6.0500    1.6310   19.3980 C.3   243  PHE243      0.0560
     27  CG         4.8430    1.1460   20.1440 C.ar  243  PHE243     -0.0200
     28  CD1        4.9640    0.1380   21.0720 C.ar  243  PHE243     -0.0042
     29  CD2        3.5940    1.7100   19.9260 C.ar  243  PHE243     -0.0042
     30  CE1        3.8610   -0.3190   21.7790 C.ar  243  PHE243     -0.0003
     31  CE2        2.4790    1.2530   20.6350 C.ar  243  PHE243     -0.0003
     32  CZ         2.6200    0.2420   21.5570 C.ar  243  PHE243     -0.0000
     33  N         10.5210    5.4940   20.5540 N.3   245  LEU245     -0.1231
     34  CA        11.2820    6.4630   21.3180 C.3   245  LEU245      0.1693
     35  C         12.7690    6.1260   21.4580 C.2   245  LEU245      0.2592
     36  O         13.5580    6.9740   21.8270 O.2   245  LEU245     -0.2718
     37  CB        10.6070    6.7200   22.6610 C.3   245  LEU245      0.0284
     38  CG         9.2190    7.3550   22.4260 C.3   245  LEU245      0.0019
     39  CD1        8.4620    7.4840   23.7370 C.3   245  LEU245      0.0001
     40  CD2        9.3180    8.7070   21.7160 C.3   245  LEU245      0.0001
     41  N         13.1420    4.8870   21.1540 N.am  246  ASN246     -0.1974
     42  CA        14.5300    4.4960   21.3260 C.3   246  ASN246      0.1688
     43  C         15.4130    5.0610   20.2490 C.2   246  ASN246      0.2292
     44  O         16.6180    5.0070   20.3600 O.2   246  ASN246     -0.2864
     45  CB        14.6670    2.9890   21.4520 C.3   246  ASN246      0.1181
     46  CG        14.1550    2.5030   22.7890 C.2   246  ASN246      0.2629
     47  OD1       13.3360    1.5830   22.8650 O.2   246  ASN246     -0.2716
     48  ND2       14.6330    3.1280   23.8560 N.am  246  ASN246     -0.0877
     49  N          9.2940    8.9530   28.1690 N.3   321  THR321     -0.1204
     50  CA         8.7920    7.7120   27.6000 C.3   321  THR321      0.1982
     51  C          7.6560    7.2460   28.4500 C.2   321  THR321      0.2497
     52  O          7.5690    7.6500   29.5880 O.2   321  THR321     -0.2729
     53  CB         9.8950    6.6270   27.6070 C.3   321  THR321      0.1783
     54  OG1       10.4680    6.5130   28.9220 O.3   321  THR321     -0.2211
     55  CG2       11.0850    7.0900   26.7530 C.3   321  THR321      0.0376
     56  N          6.7950    6.4010   27.8950 N.am  322  PRO322     -0.2505
     57  CA         5.6730    5.8390   28.6380 C.3   322  PRO322      0.1487
     58  C          6.1620    4.8400   29.6520 C.2   322  PRO322      0.2276
     59  O          6.9850    3.9540   29.3430 O.2   322  PRO322     -0.2865
     60  CB         4.8240    5.1360   27.5700 C.3   322  PRO322      0.0556
     61  CG         5.6140    5.1270   26.3250 C.2   322  PRO322     -0.0078
     62  CD         6.8500    5.9240   26.5030 C.2   322  PRO322      0.0634
     63  N          0.8590    2.1770   30.3060 N.3   325  TRP325     -0.1241
     64  CA        -0.1000    2.4880   29.2540 C.3   325  TRP325      0.1605
     65  C         -1.4200    2.9830   29.8080 C.2   325  TRP325      0.2264
     66  O         -1.9980    3.9330   29.2890 O.2   325  TRP325     -0.2867
     67  CB        -0.2810    1.3080   28.2880 C.3   325  TRP325      0.0550
     68  CG         0.5630    1.4660   27.0290 C.ar  325  TRP325      0.0003
     69  CD1        0.1050    1.6480   25.7660 C.ar  325  TRP325      0.0946
     70  CD2        1.9970    1.4580   26.9340 C.ar  325  TRP325      0.0152
     71  NE1        1.1520    1.7510   24.8860 N.ar  325  TRP325     -0.2442
     72  CE2        2.3270    1.6390   25.5760 C.ar  325  TRP325      0.0810
     73  CE3        3.0380    1.3130   27.8590 C.ar  325  TRP325      0.0012
     74  CZ2        3.6400    1.6820   25.1180 C.ar  325  TRP325      0.0191
     75  CZ3        4.3460    1.3540   27.4030 C.ar  325  TRP325      0.0001
     76  CH2        4.6370    1.5370   26.0410 C.ar  325  TRP325      0.0015
     77  N          0.5290   -2.5160   29.1370 N.3   330  ASP330     -0.1225
     78  CA         1.7310   -1.8770   28.6060 C.3   330  ASP330      0.1805
     79  C          2.0880   -2.4430   27.2370 C.2   330  ASP330      0.2598
     80  O          1.8600   -3.6170   26.9730 O.2   330  ASP330     -0.2718
     81  CB         2.9320   -2.0820   29.5150 C.3   330  ASP330      0.1424
     82  CG         2.7590   -1.4310   30.8370 C.2   330  ASP330      0.3668
     83  OD1        1.8450   -0.5850   30.9600 O.co2 330  ASP330     -0.2456
     84  OD2        3.4940   -1.7110   31.8010 O.co2 330  ASP330     -0.2456
     85  N          2.6510   -1.5850   26.3910 N.am  331  TRP331     -0.1962
     86  CA         3.0340   -1.9260   25.0330 C.3   331  TRP331      0.1771
     87  C          1.8820   -2.3520   24.1410 C.2   331  TRP331      0.2620
     88  O          2.0430   -3.2040   23.2740 O.2   331  TRP331     -0.2715
     89  CB         4.1860   -2.9370   25.0140 C.3   331  TRP331      0.0590
     90  CG         5.3720   -2.3570   25.6930 C.ar  331  TRP331      0.0006
     91  CD1        6.1690   -1.3460   25.2350 C.ar  331  TRP331      0.0946
     92  CD2        5.8980   -2.7450   26.9530 C.ar  331  TRP331      0.0152
     93  NE1        7.1660   -1.0880   26.1450 N.ar  331  TRP331     -0.2442
     94  CE2        7.0190   -1.9350   27.2080 C.ar  331  TRP331      0.0810
     95  CE3        5.5360   -3.7020   27.8990 C.ar  331  TRP331      0.0012
     96  CZ2        7.7800   -2.0520   28.3710 C.ar  331  TRP331      0.0191
     97  CZ3        6.2870   -3.8180   29.0460 C.ar  331  TRP331      0.0001
     98  CH2        7.3990   -2.9970   29.2740 C.ar  331  TRP331      0.0015
     99  N          0.7150   -1.7590   24.3520 N.am  332  THR332     -0.1937
    100  CA        -0.3930   -2.0220   23.4730 C.3   332  THR332      0.2028
    101  C         -0.5140   -0.9400   22.4340 C.2   332  THR332      0.2642
    102  O         -0.7790    0.2240   22.7450 O.2   332  THR332     -0.2714
    103  CB        -1.7140   -2.0710   24.2020 C.3   332  THR332      0.1808
    104  OG1       -1.6570   -3.0610   25.2310 O.3   332  THR332     -0.2208
    105  CG2       -2.8110   -2.5710   23.2190 C.3   332  THR332      0.0379
    106  N         -0.3200   -1.3430   21.1930 N.am  333  PHE333     -0.1973
    107  CA        -0.5240   -0.4590   20.0710 C.3   333  PHE333      0.1639
    108  C         -2.0160   -0.2270   19.9290 C.2   333  PHE333      0.2290
    109  O         -2.7730   -1.1650   19.6910 O.2   333  PHE333     -0.2864
    110  CB        -0.0080   -1.1340   18.8140 C.3   333  PHE333      0.0560
    111  CG        -0.1220   -0.2960   17.6010 C.ar  333  PHE333     -0.0200
    112  CD1       -1.2850   -0.3130   16.8280 C.ar  333  PHE333     -0.0042
    113  CD2        0.9270    0.5180   17.2170 C.ar  333  PHE333     -0.0042
    114  CE1       -1.3940    0.4730   15.6830 C.ar  333  PHE333     -0.0003
    115  CE2        0.8190    1.3050   16.0770 C.ar  333  PHE333     -0.0003
    116  CZ        -0.3400    1.2800   15.3160 C.ar  333  PHE333     -0.0000
@<TRIPOS>BOND
     1    12    11    2
     2    11    10    1
     3    10     9    1
     4    10    13    1
     5    14    13    1
     6    13    15    1
     7   116   114   ar
     8   116   115   ar
     9   114   112   ar
    10   115   113   ar
    11     3     4    2
    12     3     2    1
    13   112   111   ar
    14     1     2    1
    15   113   111   ar
    16   111   110    1
    17     2     5    1
    18     5     6    1
    19   110   107    1
    20    25    24    2
    21    26    27    1
    22    26    23    1
    23     6     8   am
    24     6     7    2
    25    24    23    1
    26   109   108    2
    27    29    27   ar
    28    29    31   ar
    29   108   107    1
    30   107   106    1
    31    27    28   ar
    32    23    22    1
    33    43    44    2
    34    43    42    1
    35    16    17    1
    36    22    18   am
    37    33    34    1
    38    31    32   ar
    39    28    30   ar
    40    41    42    1
    41    41    35   am
    42   106   101   am
    43    34    35    1
    44    34    37    1
    45    42    45    1
    46    45    46    1
    47    35    36    2
    48    32    30   ar
    49    18    17    1
    50    18    19    2
    51    17    20    1
    52    40    38    1
    53    21    20    1
    54    38    37    1
    55    38    39    1
    56   101   102    2
    57   101   100    1
    58    46    47    2
    59    46    48   am
    60   105   103    1
    61    88    87    2
    62   100   103    1
    63   100    99    1
    64    87    99   am
    65    87    86    1
    66   103   104    1
    67    71    72   ar
    68    71    69   ar
    69    89    86    1
    70    89    90    1
    71    86    85    1
    72    74    72   ar
    73    74    76   ar
    74    91    90   ar
    75    91    93   ar
    76    72    70   ar
    77    90    92   ar
    78    69    68   ar
    79    76    75   ar
    80    93    94   ar
    81    61    62    2
    82    61    60    1
    83    85    79   am
    84    62    56    1
    85    55    53    1
    86    70    68   ar
    87    70    73   ar
    88    92    94   ar
    89    92    95   ar
    90    80    79    2
    91    68    67    1
    92    94    96   ar
    93    79    78    1
    94    75    73   ar
    95    60    57    1
    96    50    53    1
    97    50    49    1
    98    50    51    1
    99    53    54    1
   100    56    51   am
   101    56    57    1
   102    95    97   ar
   103    67    64    1
   104    96    98   ar
   105    51    52    2
   106    78    77    1
   107    78    81    1
   108    57    58    1
   109    97    98   ar
   110    64    65    1
   111    64    63    1
   112    66    65    2
   113    59    58    2
   114    81    82    1
   115    82    83   ar
   116    82    84   ar
