@<TRIPOS>MOLECULE
tmp/1t0oA03.pdb
 91 90 0 0 0
SMALL
GASTEIGER

@<TRIPOS>ATOM
      1  N         -3.6930   -7.1820   14.2700 N.3   156  PRO156     -0.2102
      2  CA        -3.9550   -6.6660   15.6140 C.3   156  PRO156      0.1504
      3  C         -2.6470   -6.1890   16.2030 C.2   156  PRO156      0.2575
      4  O         -1.5870   -6.7850   15.9610 O.2   156  PRO156     -0.2718
      5  CB        -4.4780   -7.8910   16.3650 C.3   156  PRO156      0.0282
      6  CG        -5.0210   -8.7590   15.2760 C.3   156  PRO156      0.0208
      7  CD        -3.9880   -8.6210   14.1650 C.3   156  PRO156      0.0893
      8  N         -2.7290   -5.1130   16.9710 N.am  157  ASN157     -0.1975
      9  CA        -1.5590   -4.5570   17.6290 C.3   157  ASN157      0.1688
     10  C         -0.5580   -3.9400   16.6670 C.2   157  ASN157      0.2292
     11  O          0.6370   -3.9500   16.9290 O.2   157  ASN157     -0.2864
     12  CB        -0.8810   -5.6280   18.4640 C.3   157  ASN157      0.1181
     13  CG         0.0270   -5.0490   19.5400 C.2   157  ASN157      0.2629
     14  OD1       -0.3120   -4.0570   20.2180 O.2   157  ASN157     -0.2716
     15  ND2        1.1910   -5.6760   19.6970 N.am  157  ASN157     -0.0877
     16  N         -5.1990    2.4500   30.3520 N.3   327  ILE327     -0.1231
     17  CA        -6.3790    1.6620   30.0860 C.3   327  ILE327      0.1692
     18  C         -6.0090    0.3030   29.4730 C.2   327  ILE327      0.2592
     19  O         -6.5610   -0.7390   29.8630 O.2   327  ILE327     -0.2718
     20  CB        -7.4350    2.4460   29.2780 C.3   327  ILE327      0.0266
     21  CG1       -8.8030    1.7750   29.4550 C.3   327  ILE327      0.0019
     22  CG2       -7.0400    2.6170   27.7860 C.3   327  ILE327      0.0020
     23  CD1       -9.9140    2.4350   28.6960 C.3   327  ILE327      0.0001
     24  N         -5.0790    0.3130   28.5250 N.am  328  ASN328     -0.1974
     25  CA        -4.5700   -0.9380   27.9720 C.3   328  ASN328      0.1688
     26  C         -3.3310   -1.5020   28.7050 C.2   328  ASN328      0.2292
     27  O         -2.6750   -0.7950   29.4640 O.2   328  ASN328     -0.2864
     28  CB        -4.2880   -0.7670   26.4840 C.3   328  ASN328      0.1181
     29  CG        -5.5460   -0.4390   25.6990 C.2   328  ASN328      0.2629
     30  OD1       -6.6350   -0.8090   26.1020 O.2   328  ASN328     -0.2716
     31  ND2       -5.3980    0.2590   24.5780 N.am  328  ASN328     -0.0877
     32  N          0.7150   -1.7590   24.3520 N.3   332  THR332     -0.1203
     33  CA        -0.3930   -2.0220   23.4730 C.3   332  THR332      0.1994
     34  C         -0.5140   -0.9400   22.4340 C.2   332  THR332      0.2618
     35  O         -0.7790    0.2240   22.7450 O.2   332  THR332     -0.2717
     36  CB        -1.7140   -2.0710   24.2020 C.3   332  THR332      0.1784
     37  OG1       -1.6570   -3.0610   25.2310 O.3   332  THR332     -0.2211
     38  CG2       -2.8110   -2.5710   23.2190 C.3   332  THR332      0.0376
     39  N         -0.3200   -1.3430   21.1930 N.am  333  PHE333     -0.1961
     40  CA        -0.5240   -0.4590   20.0710 C.3   333  PHE333      0.1771
     41  C         -2.0160   -0.2270   19.9290 C.2   333  PHE333      0.2620
     42  O         -2.7730   -1.1650   19.6910 O.2   333  PHE333     -0.2715
     43  CB        -0.0080   -1.1340   18.8140 C.3   333  PHE333      0.0574
     44  CG        -0.1220   -0.2960   17.6010 C.ar  333  PHE333     -0.0200
     45  CD1       -1.2850   -0.3130   16.8280 C.ar  333  PHE333     -0.0042
     46  CD2        0.9270    0.5180   17.2170 C.ar  333  PHE333     -0.0042
     47  CE1       -1.3940    0.4730   15.6830 C.ar  333  PHE333     -0.0003
     48  CE2        0.8190    1.3050   16.0770 C.ar  333  PHE333     -0.0003
     49  CZ        -0.3400    1.2800   15.3160 C.ar  333  PHE333     -0.0000
     50  N         -2.4490    1.0160   20.0710 N.am  334  ASN334     -0.1958
     51  CA        -3.8710    1.3110   19.9920 C.3   334  ASN334      0.1819
     52  C         -4.0410    2.7640   19.5840 C.2   334  ASN334      0.2621
     53  O         -3.6650    3.6700   20.3270 O.2   334  ASN334     -0.2715
     54  CB        -4.5270    1.0580   21.3500 C.3   334  ASN334      0.1195
     55  CG        -6.0150    1.2240   21.3110 C.2   334  ASN334      0.2630
     56  OD1       -6.5300    2.2710   20.9150 O.2   334  ASN334     -0.2716
     57  ND2       -6.7210    0.1730   21.7250 N.am  334  ASN334     -0.0877
     58  N         -4.6050    2.9850   18.4090 N.am  335  VAL335     -0.1963
     59  CA        -4.6560    4.3340   17.8390 C.3   335  VAL335      0.1727
     60  C         -5.5060    5.3630   18.5860 C.2   335  VAL335      0.2617
     61  O         -5.2620    6.5620   18.5130 O.2   335  VAL335     -0.2715
     62  CB        -5.0800    4.2860   16.3450 C.3   335  VAL335      0.0290
     63  CG1       -4.0900    3.4890   15.5940 C.3   335  VAL335      0.0023
     64  CG2       -6.4340    3.6440   16.1880 C.3   335  VAL335      0.0023
     65  N         -6.5030    4.8920   19.3050 N.am  336  THR336     -0.1937
     66  CA        -7.4400    5.7690   19.9710 C.3   336  THR336      0.2028
     67  C         -7.0630    5.9610   21.4220 C.2   336  THR336      0.2642
     68  O         -7.3280    7.0030   22.0040 O.2   336  THR336     -0.2714
     69  CB        -8.8410    5.1400   19.8980 C.3   336  THR336      0.1808
     70  OG1       -9.2660    5.1720   18.5410 O.3   336  THR336     -0.2208
     71  CG2       -9.8390    6.0560   20.5280 C.3   336  THR336      0.0379
     72  N         -6.4390    4.9330   21.9850 N.am  337  TYR337     -0.1973
     73  CA        -6.0710    4.9130   23.3840 C.3   337  TYR337      0.1639
     74  C         -4.5670    4.6110   23.5790 C.2   337  TYR337      0.2290
     75  O         -4.1770    3.5080   23.9700 O.2   337  TYR337     -0.2864
     76  CB        -6.9770    3.9150   24.1140 C.3   337  TYR337      0.0560
     77  CG        -8.3820    4.4440   24.1640 C.ar  337  TYR337     -0.0198
     78  CD1       -9.3190    4.0670   23.2260 C.ar  337  TYR337     -0.0009
     79  CD2       -8.7640    5.3340   25.1580 C.ar  337  TYR337     -0.0009
     80  CE1      -10.6100    4.5590   23.2730 C.ar  337  TYR337      0.0417
     81  CE2      -10.0250    5.8240   25.2180 C.ar  337  TYR337      0.0417
     82  CZ       -10.9540    5.4360   24.2710 C.ar  337  TYR337      0.1957
     83  OH       -12.2320    5.9310   24.3290 O.3   337  TYR337     -0.2866
     84  N         -9.6790    9.4360   27.9130 N.3   358  LEU358     -0.1245
     85  CA       -11.1180    9.1970   28.0060 C.3   358  LEU358      0.1561
     86  C        -11.8300   10.5010   27.7150 C.2   358  LEU358      0.2260
     87  O        -11.2400   11.5710   27.8440 O.2   358  LEU358     -0.2867
     88  CB       -11.5240    8.7110   29.4040 C.3   358  LEU358      0.0270
     89  CG       -10.9890    7.3690   29.9070 C.3   358  LEU358      0.0019
     90  CD1      -11.4630    7.1250   31.3380 C.3   358  LEU358      0.0001
     91  CD2      -11.4180    6.2330   29.0270 C.3   358  LEU358      0.0001
@<TRIPOS>BOND
     1     7     1    1
     2     7     6    1
     3     1     2    1
     4     6     5    1
     5    49    47   ar
     6    49    48   ar
     7    63    62    1
     8     2     3    1
     9     2     5    1
    10    47    45   ar
    11     4     3    2
    12    48    46   ar
    13    64    62    1
    14     3     8   am
    15    62    59    1
    16    10    11    2
    17    10     9    1
    18    45    44   ar
    19     8     9    1
    20    46    44   ar
    21    44    43    1
    22     9    12    1
    23    59    58    1
    24    59    60    1
    25    58    52   am
    26    12    13    1
    27    61    60    2
    28    70    69    1
    29    60    65   am
    30    43    40    1
    31    65    66    1
    32    13    15   am
    33    13    14    2
    34    52    51    1
    35    52    53    2
    36    42    41    2
    37    69    66    1
    38    69    71    1
    39    41    50   am
    40    41    40    1
    41    66    67    1
    42    51    50    1
    43    51    54    1
    44    40    39    1
    45    56    55    2
    46    39    34   am
    47    55    54    1
    48    55    57   am
    49    67    72   am
    50    67    68    2
    51    72    73    1
    52    34    35    2
    53    34    33    1
    54    38    36    1
    55    78    80   ar
    56    78    77   ar
    57    80    82   ar
    58    73    74    1
    59    73    76    1
    60    33    36    1
    61    33    32    1
    62    74    75    2
    63    76    77    1
    64    77    79   ar
    65    36    37    1
    66    82    83    1
    67    82    81   ar
    68    31    29   am
    69    79    81   ar
    70    29    30    2
    71    29    28    1
    72    28    25    1
    73    86    87    2
    74    86    85    1
    75    22    20    1
    76    84    85    1
    77    25    24    1
    78    25    26    1
    79    85    88    1
    80    24    18   am
    81    23    21    1
    82    26    27    2
    83    91    89    1
    84    20    21    1
    85    20    17    1
    86    88    89    1
    87    18    19    2
    88    18    17    1
    89    89    90    1
    90    17    16    1
