@<TRIPOS>MOLECULE
tmp/1t0oA04.pdb
 131 125 0 0 0
SMALL
GASTEIGER

@<TRIPOS>ATOM
      1  N          3.0840   25.4000    6.2860 N.3    19  TRP19      -0.1241
      2  CA         2.1310   24.3870    5.8450 C.3    19  TRP19       0.1605
      3  C          0.7800   24.3400    6.5980 C.2    19  TRP19       0.2264
      4  O         -0.2670   24.5430    5.9800 O.2    19  TRP19      -0.2867
      5  CB         2.7650   22.9990    5.7370 C.3    19  TRP19       0.0550
      6  CG         1.8740   22.0280    5.0070 C.ar   19  TRP19       0.0003
      7  CD1        1.2010   20.9830    5.5410 C.ar   19  TRP19       0.0946
      8  CD2        1.5690   22.0290    3.6060 C.ar   19  TRP19       0.0152
      9  NE1        0.4890   20.3260    4.5650 N.ar   19  TRP19      -0.2442
     10  CE2        0.7020   20.9510    3.3640 C.ar   19  TRP19       0.0810
     11  CE3        1.9450   22.8360    2.5280 C.ar   19  TRP19       0.0012
     12  CZ2        0.2070   20.6580    2.0990 C.ar   19  TRP19       0.0191
     13  CZ3        1.4590   22.5490    1.2760 C.ar   19  TRP19       0.0001
     14  CH2        0.5900   21.4650    1.0680 C.ar   19  TRP19       0.0015
     15  N          7.5740   25.9210    3.6200 N.3    54  ASP54      -0.1225
     16  CA         7.2400   24.5850    3.2180 C.3    54  ASP54       0.1805
     17  C          7.0480   24.5360    1.6880 C.2    54  ASP54       0.2597
     18  O          7.6770   25.2980    0.9500 O.2    54  ASP54      -0.2718
     19  CB         5.9780   24.1090    3.9490 C.3    54  ASP54       0.1424
     20  CG         5.9790   22.6220    4.1610 C.2    54  ASP54       0.3668
     21  OD1        5.3360   21.8970    3.3710 O.co2  54  ASP54      -0.2456
     22  OD2        6.5960   22.0910    5.0930 O.co2  54  ASP54      -0.2456
     23  N          6.1950   23.6490    1.2110 N.am   55  ASP55      -0.1974
     24  CA         5.9810   23.4850   -0.2230 C.3    55  ASP55       0.1709
     25  C          5.3580   24.7080   -0.8850 C.2    55  ASP55       0.2293
     26  O          4.7410   25.5390   -0.2120 O.2    55  ASP55      -0.2864
     27  CB         5.0850   22.2750   -0.4230 C.3    55  ASP55       0.1436
     28  CG         5.2960   21.5920   -1.7360 C.2    55  ASP55       0.3671
     29  OD1        5.9140   22.1650   -2.6560 O.co2  55  ASP55      -0.2456
     30  OD2        4.8650   20.4490   -1.9410 O.co2  55  ASP55      -0.2456
     31  N         12.1180   24.0260    1.7040 N.3    96  TYR96      -0.1241
     32  CA        11.5350   22.7160    1.5340 C.3    96  TYR96       0.1605
     33  C         11.8610   22.1980    0.1620 C.2    96  TYR96       0.2264
     34  O         11.8060   22.9410   -0.8070 O.2    96  TYR96      -0.2867
     35  CB        10.0040   22.8560    1.6750 C.3    96  TYR96       0.0534
     36  CG         9.1940   21.6810    1.1920 C.ar   96  TYR96      -0.0201
     37  CD1        8.8910   21.5200   -0.1630 C.ar   96  TYR96      -0.0009
     38  CD2        8.7260   20.7310    2.0880 C.ar   96  TYR96      -0.0009
     39  CE1        8.1500   20.4440   -0.6030 C.ar   96  TYR96       0.0417
     40  CE2        7.9860   19.6570    1.6580 C.ar   96  TYR96       0.0417
     41  CZ         7.7000   19.5220    0.3110 C.ar   96  TYR96       0.1957
     42  OH         6.9690   18.4650   -0.1280 O.3    96  TYR96      -0.2866
     43  N          5.5760   17.3620   -3.1150 N.3   104  CYS104     -0.1221
     44  CA         4.2850   16.7820   -2.8780 C.3   104  CYS104      0.1808
     45  C          3.2030   17.6370   -3.4970 C.2   104  CYS104      0.2601
     46  O          2.2050   17.1080   -3.9140 O.2   104  CYS104     -0.2717
     47  CB         4.0470   16.6170   -1.3850 C.3   104  CYS104      0.0970
     48  SG         5.0480   15.2960   -0.7280 S.3   104  CYS104     -0.0800
     49  N          3.3960   18.9500   -3.5570 N.am  105  ALA105     -0.1979
     50  CA         2.4160   19.8000   -4.2330 C.3   105  ALA105      0.1597
     51  C          2.6900   19.9310   -5.7230 C.2   105  ALA105      0.2287
     52  O          1.9990   20.6700   -6.4090 O.2   105  ALA105     -0.2864
     53  CB         2.3280   21.1610   -3.5990 C.3   105  ALA105      0.0319
     54  N         13.6490   20.9570    4.9540 N.3   130  LYS130     -0.1245
     55  CA        12.6710   19.9150    5.1690 C.3   130  LYS130      0.1561
     56  C         12.6090   19.1780    3.8600 C.2   130  LYS130      0.2260
     57  O         12.3560   19.7730    2.8200 O.2   130  LYS130     -0.2867
     58  CB        11.3030   20.4930    5.4550 C.3   130  LYS130      0.0271
     59  CG        10.2260   19.4130    5.5380 C.3   130  LYS130      0.0035
     60  CD         8.8810   20.0050    5.9170 C.3   130  LYS130      0.0206
     61  CE         7.7860   18.9750    5.7910 C.3   130  LYS130      0.1093
     62  NZ         6.4760   19.5810    6.2300 N.3   130  LYS130     -0.1314
     63  N         11.0770   16.1460    1.6150 N.3   132  ASP132     -0.1239
     64  CA         9.8950   15.2880    1.5510 C.3   132  ASP132      0.1674
     65  C         10.0920   14.0240    0.7300 C.2   132  ASP132      0.2266
     66  O         11.1470   13.7860    0.1580 O.2   132  ASP132     -0.2867
     67  CB         8.7380   16.0980    0.9570 C.3   132  ASP132      0.1410
     68  CG         7.3970   15.8390    1.6430 C.2   132  ASP132      0.3668
     69  OD1        7.1190   14.7180    2.1340 O.co2 132  ASP132     -0.2456
     70  OD2        6.5190   16.7300    1.7360 O.co2 132  ASP132     -0.2456
     71  N          7.6090   12.6300   -1.6200 N.3   134  CYS134     -0.1235
     72  CA         6.7110   12.3580   -2.7550 C.3   134  CYS134      0.1677
     73  C          7.4590   12.1280   -4.0540 C.2   134  CYS134      0.2270
     74  O          8.6190   12.4850   -4.1820 O.2   134  CYS134     -0.2867
     75  CB         5.7340   13.5030   -2.9780 C.3   134  CYS134      0.0956
     76  SG         4.4700   13.6430   -1.6890 S.3   134  CYS134     -0.0801
     77  N         11.4970   14.4430    5.8040 N.3   203  CYS203     -0.1235
     78  CA        10.0590   14.2630    5.7980 C.3   203  CYS203      0.1677
     79  C          9.7430   12.9740    5.0640 C.2   203  CYS203      0.2270
     80  O          9.4130   12.9880    3.8860 O.2   203  CYS203     -0.2867
     81  CB         9.3710   15.4530    5.1330 C.3   203  CYS203      0.0956
     82  SG         7.5910   15.3450    5.3520 S.3   203  CYS203     -0.0801
     83  N          7.7130   10.3870    6.5630 N.3   205  TRP205     -0.1241
     84  CA         6.4300    9.8420    7.0220 C.3   205  TRP205      0.1605
     85  C          6.5810    8.5170    7.7470 C.2   205  TRP205      0.2264
     86  O          5.6650    7.6970    7.7470 O.2   205  TRP205     -0.2867
     87  CB         5.4220    9.6680    5.8650 C.3   205  TRP205      0.0550
     88  CG         5.4090   10.7230    4.7790 C.ar  205  TRP205      0.0003
     89  CD1        5.4510   12.0750    4.9410 C.ar  205  TRP205      0.0946
     90  CD2        5.3450   10.4990    3.3540 C.ar  205  TRP205      0.0152
     91  NE1        5.4180   12.7040    3.7160 N.ar  205  TRP205     -0.2442
     92  CE2        5.3540   11.7600    2.7260 C.ar  205  TRP205      0.0810
     93  CE3        5.2830    9.3600    2.5520 C.ar  205  TRP205      0.0012
     94  CZ2        5.2980   11.9110    1.3390 C.ar  205  TRP205      0.0191
     95  CZ3        5.2320    9.5080    1.1740 C.ar  205  TRP205      0.0001
     96  CH2        5.2390   10.7740    0.5830 C.ar  205  TRP205      0.0015
     97  N         10.2880   12.7470   10.2130 N.3   222  ARG222     -0.1245
     98  CA         8.8560   12.5260   10.3670 C.3   222  ARG222      0.1563
     99  C          8.6540   11.0340   10.5990 C.2   222  ARG222      0.2260
    100  O          9.2960   10.2180    9.9570 O.2   222  ARG222     -0.2867
    101  CB         8.1070   13.0390    9.1230 C.3   222  ARG222      0.0307
    102  CG         7.9230   14.5750    9.1640 C.3   222  ARG222      0.0489
    103  CD         6.6470   15.0130    9.9400 C.3   222  ARG222      0.2205
    104  NE         5.5810   14.1780    9.4110 N.pl3 222  ARG222     -0.0865
    105  CZ         4.9140   14.4600    8.3040 C.cat 222  ARG222      0.5346
    106  NH1        5.1960   15.5530    7.6300 N.pl3 222  ARG222      0.1354
    107  NH2        3.9620   13.6480    7.8750 N.pl3 222  ARG222      0.1354
    108  N          0.9200   12.7570    7.6340 N.3   226  ASP226     -0.1239
    109  CA         0.6550   14.1360    8.0190 C.3   226  ASP226      0.1674
    110  C         -0.3000   14.2640    9.1760 C.2   226  ASP226      0.2266
    111  O         -1.3360   13.6160    9.2020 O.2   226  ASP226     -0.2867
    112  CB         0.0630   14.8970    6.8370 C.3   226  ASP226      0.1410
    113  CG         1.0410   15.0680    5.6980 C.2   226  ASP226      0.3668
    114  OD1        2.1620   14.5160    5.7590 O.co2 226  ASP226     -0.2456
    115  OD2        0.7680   15.7410    4.6950 O.co2 226  ASP226     -0.2456
    116  N          5.5150   15.6370   13.6100 N.3   257  ASP257     -0.1225
    117  CA         4.8920   16.6000   12.7070 C.3   257  ASP257      0.1805
    118  C          4.5540   17.9390   13.3350 C.2   257  ASP257      0.2597
    119  O          4.6610   18.1360   14.5520 O.2   257  ASP257     -0.2718
    120  CB         3.6730   16.0220   11.9910 C.3   257  ASP257      0.1424
    121  CG         3.5190   16.5570   10.5790 C.2   257  ASP257      0.3668
    122  OD1        4.2760   17.4780   10.1320 O.co2 257  ASP257     -0.2456
    123  OD2        2.6520   16.1060    9.8360 O.co2 257  ASP257     -0.2456
    124  N          4.1450   18.8500   12.4700 N.am  258  MET258     -0.1979
    125  CA         3.9660   20.2380   12.8250 C.3   258  MET258      0.1605
    126  C          2.8040   20.4220   13.7560 C.2   258  MET258      0.2287
    127  O          1.8070   19.7180   13.6410 O.2   258  MET258     -0.2864
    128  CB         3.8240   21.0970   11.5720 C.3   258  MET258      0.0413
    129  CG         5.1140   21.0460   10.7490 C.3   258  MET258      0.0598
    130  SD         4.9600   21.6170    9.0660 S.3   258  MET258     -0.1393
    131  CE         3.7650   20.4530    8.3840 C.3   258  MET258      0.0692
@<TRIPOS>BOND
     1    52    51    2
     2    51    50    1
     3    50    53    1
     4    50    49    1
     5    74    73    2
     6    73    72    1
     7    46    45    2
     8    49    45   am
     9    45    44    1
    10    43    44    1
    11    75    72    1
    12    75    76    1
    13    44    47    1
    14    72    71    1
    15    29    28   ar
    16    30    28   ar
    17    28    27    1
    18    76    48    1
    19    47    48    1
    20    25    24    1
    21    25    26    2
    22    34    33    2
    23    39    37   ar
    24    39    41   ar
    25    27    24    1
    26    24    23    1
    27    37    36   ar
    28    42    41    1
    29    66    65    2
    30    33    32    1
    31    41    40   ar
    32    96    95   ar
    33    96    94   ar
    34    65    64    1
    35    18    17    2
    36    67    64    1
    37    67    68    1
    38    14    13   ar
    39    14    12   ar
    40    95    93   ar
    41    36    35    1
    42    36    38   ar
    43    23    17   am
    44    13    11   ar
    45    94    92   ar
    46    32    35    1
    47    32    31    1
    48    64    63    1
    49    68    70   ar
    50    68    69   ar
    51    40    38   ar
    52    17    16    1
    53    12    10   ar
    54    11     8   ar
    55    93    90   ar
    56    92    90   ar
    57    92    91   ar
    58    57    56    2
    59    16    15    1
    60    16    19    1
    61    90    88   ar
    62    10     8   ar
    63    10     9   ar
    64    21    20   ar
    65     8     6   ar
    66    91    89   ar
    67    56    55    1
    68    80    79    2
    69    19    20    1
    70    20    22   ar
    71     9     7   ar
    72   115   113   ar
    73    88    89   ar
    74    88    87    1
    75    54    55    1
    76     6     7   ar
    77     6     5    1
    78    79    78    1
    79    81    82    1
    80    81    78    1
    81    55    58    1
    82    58    59    1
    83    59    60    1
    84   113   114   ar
    85   113   112    1
    86     5     2    1
    87    61    60    1
    88    61    62    1
    89    78    77    1
    90     2     1    1
    91     2     3    1
    92    87    84    1
    93     4     3    2
    94    83    84    1
    95   112   109    1
    96    84    85    1
    97   106   105    1
    98   108   109    1
    99    86    85    2
   100   107   105    1
   101   109   110    1
   102   105   104    2
   103   131   130    1
   104   130   129    1
   105   101   102    1
   106   101    98    1
   107   102   103    1
   108   110   111    2
   109   104   103    1
   110   123   121   ar
   111   100    99    2
   112   122   121   ar
   113    97    98    1
   114    98    99    1
   115   121   120    1
   116   129   128    1
   117   128   125    1
   118   120   117    1
   119   124   125    1
   120   124   118   am
   121   117   118    1
   122   117   116    1
   123   125   126    1
   124   118   119    2
   125   127   126    2
