@<TRIPOS>MOLECULE
tmp/1t0oA02.pdb
 116 113 0 0 0
SMALL
GASTEIGER

@<TRIPOS>ATOM
      1  N         22.0410   13.2120   13.2420 N.3     1  ILE1       -0.1231
      2  CA        23.4710   13.3590   12.8400 C.3     1  ILE1        0.1692
      3  C         24.0880   14.5730   13.5210 C.2     1  ILE1        0.2591
      4  O         23.4200   15.5810   13.6870 O.2     1  ILE1       -0.2718
      5  CB        23.5520   13.4870   11.2920 C.3     1  ILE1        0.0266
      6  CG1       24.9660   13.2100   10.7810 C.3     1  ILE1        0.0019
      7  CG2       23.0390   14.8600   10.8270 C.3     1  ILE1        0.0020
      8  CD1       25.0690   13.3100    9.2620 C.3     1  ILE1        0.0001
      9  N         25.3580   14.4890   13.9200 N.am    2  VAL2       -0.1980
     10  CA        26.0210   15.6450   14.5280 C.3     2  VAL2        0.1595
     11  C         26.3730   16.6490   13.4540 C.2     2  VAL2        0.2287
     12  O         26.8060   16.2800   12.3710 O.2     2  VAL2       -0.2864
     13  CB        27.3420   15.2820   15.2210 C.3     2  VAL2        0.0276
     14  CG1       27.3970   15.9000   16.5890 C.3     2  VAL2        0.0022
     15  CG2       27.4980   13.7930   15.3260 C.3     2  VAL2        0.0022
     16  N         21.2150   19.7100   17.7220 N.3    10  LYS10      -0.1245
     17  CA        21.4580   18.7330   18.7680 C.3    10  LYS10       0.1561
     18  C         20.1750   18.4880   19.5520 C.2    10  LYS10       0.2260
     19  O         19.8040   17.3530   19.8480 O.2    10  LYS10      -0.2867
     20  CB        22.5700   19.2130   19.6940 C.3    10  LYS10       0.0271
     21  CG        22.7950   18.3030   20.8760 C.3    10  LYS10       0.0035
     22  CD        24.0720   18.6680   21.5990 C.3    10  LYS10       0.0206
     23  CE        24.4800   17.5520   22.5290 C.3    10  LYS10       0.1093
     24  NZ        25.9400   17.6330   22.8910 N.3    10  LYS10      -0.1314
     25  N         19.4950    8.8810   12.0360 N.3   215  ASN215     -0.1240
     26  CA        20.5420    9.5680   12.7630 C.3   215  ASN215      0.1653
     27  C         21.8750    9.6450   11.9970 C.2   215  ASN215      0.2266
     28  O         22.7210   10.4590   12.3240 O.2   215  ASN215     -0.2867
     29  CB        20.7360    8.9160   14.1220 C.3   215  ASN215      0.1155
     30  CG        21.4080    9.8320   15.1190 C.2   215  ASN215      0.2627
     31  OD1       21.3230   11.0630   15.0210 O.2   215  ASN215     -0.2716
     32  ND2       22.0850    9.2290   16.0950 N.am  215  ASN215     -0.0877
     33  N         13.1420    4.8870   21.1540 N.3   246  ASN246     -0.1225
     34  CA        14.5300    4.4960   21.3260 C.3   246  ASN246      0.1785
     35  C         15.4130    5.0610   20.2490 C.2   246  ASN246      0.2598
     36  O         16.6180    5.0070   20.3600 O.2   246  ASN246     -0.2718
     37  CB        14.6670    2.9890   21.4520 C.3   246  ASN246      0.1169
     38  CG        14.1550    2.5030   22.7890 C.2   246  ASN246      0.2627
     39  OD1       13.3360    1.5830   22.8650 O.2   246  ASN246     -0.2716
     40  ND2       14.6330    3.1280   23.8560 N.am  246  ASN246     -0.0877
     41  N         14.7860    5.6050   19.2140 N.am  247  SER247     -0.1938
     42  CA        15.5040    6.2870   18.1450 C.3   247  SER247      0.2055
     43  C         15.7250    7.7420   18.4880 C.2   247  SER247      0.2643
     44  O         16.3300    8.4620   17.7240 O.2   247  SER247     -0.2714
     45  CB        14.6670    6.2320   16.8720 C.3   247  SER247      0.2130
     46  OG        14.2800    4.9030   16.7070 O.3   247  SER247     -0.2179
     47  N         15.2370    8.1880   19.6350 N.am  248  VAL248     -0.1963
     48  CA        15.2800    9.6180   19.9160 C.3   248  VAL248      0.1727
     49  C         16.3520    9.9460   20.9380 C.2   248  VAL248      0.2616
     50  O         16.2900    9.5090   22.0950 O.2   248  VAL248     -0.2715
     51  CB        13.9160   10.1490   20.4300 C.3   248  VAL248      0.0290
     52  CG1       13.9650   11.6550   20.6140 C.3   248  VAL248      0.0023
     53  CG2       12.7890    9.7650   19.4750 C.3   248  VAL248      0.0023
     54  N         17.3310   10.7190   20.4990 N.am  249  ASP249     -0.1957
     55  CA        18.3640   11.2190   21.3750 C.3   249  ASP249      0.1840
     56  C         18.8940   12.5170   20.7410 C.2   249  ASP249      0.2622
     57  O         18.3070   13.0210   19.7720 O.2   249  ASP249     -0.2715
     58  CB        19.4450   10.1650   21.4870 C.3   249  ASP249      0.1450
     59  CG        20.1750   10.2120   22.8030 C.2   249  ASP249      0.3671
     60  OD1       20.5840   11.3150   23.2320 O.co2 249  ASP249     -0.2456
     61  OD2       20.3770    9.1740   23.4640 O.co2 249  ASP249     -0.2456
     62  N         19.9870   13.0520   21.2800 N.am  250  PHE250     -0.1960
     63  CA        20.6480   14.2280   20.7170 C.3   250  PHE250      0.1771
     64  C         20.9580   14.0100   19.2410 C.2   250  PHE250      0.2620
     65  O         21.2900   12.9000   18.8190 O.2   250  PHE250     -0.2715
     66  CB        21.9990   14.5050   21.4230 C.3   250  PHE250      0.0574
     67  CG        21.8670   14.9780   22.8470 C.ar  250  PHE250     -0.0200
     68  CD1       21.1030   16.0870   23.1620 C.ar  250  PHE250     -0.0042
     69  CD2       22.5160   14.3030   23.8690 C.ar  250  PHE250     -0.0042
     70  CE1       20.9830   16.5260   24.4900 C.ar  250  PHE250     -0.0003
     71  CE2       22.4030   14.7290   25.1930 C.ar  250  PHE250     -0.0003
     72  CZ        21.6340   15.8420   25.5020 C.ar  250  PHE250     -0.0000
     73  N         20.8430   15.0920   18.4830 N.am  251  TRP251     -0.1960
     74  CA        21.1080   15.1250   17.0510 C.3   251  TRP251      0.1771
     75  C         20.1550   14.3580   16.1530 C.2   251  TRP251      0.2620
     76  O         20.3970   14.2930   14.9590 O.2   251  TRP251     -0.2715
     77  CB        22.5340   14.6240   16.7520 C.3   251  TRP251      0.0590
     78  CG        23.6010   15.4180   17.4270 C.ar  251  TRP251      0.0006
     79  CD1       24.4030   15.0210   18.4670 C.ar  251  TRP251      0.0946
     80  CD2       23.9880   16.7530   17.1100 C.ar  251  TRP251      0.0152
     81  NE1       25.2680   16.0370   18.8120 N.ar  251  TRP251     -0.2442
     82  CE2       25.0350   17.1120   17.9940 C.ar  251  TRP251      0.0810
     83  CE3       23.5590   17.6860   16.1670 C.ar  251  TRP251      0.0012
     84  CZ2       25.6520   18.3690   17.9560 C.ar  251  TRP251      0.0191
     85  CZ3       24.1650   18.9260   16.1270 C.ar  251  TRP251      0.0001
     86  CH2       25.2020   19.2580   17.0150 C.ar  251  TRP251      0.0015
     87  N         19.0900   13.7780   16.6940 N.am  252  GLY252     -0.1954
     88  CA        18.3160   12.8500   15.8870 C.3   252  GLY252      0.1869
     89  C         16.9970   12.5920   16.5640 C.2   252  GLY252      0.2309
     90  O         16.8790   11.7490   17.4660 O.2   252  GLY252     -0.2863
     91  N         19.9500   19.9630   27.3620 N.3   314  SER314     -0.1202
     92  CA        21.2300   19.7320   26.7090 C.3   314  SER314      0.2020
     93  C         22.1100   18.6970   27.4070 C.2   314  SER314      0.2618
     94  O         23.2560   18.4810   27.0130 O.2   314  SER314     -0.2717
     95  CB        21.9730   21.0580   26.6100 C.3   314  SER314      0.2103
     96  OG        22.4290   21.4330   27.9210 O.3   314  SER314     -0.2182
     97  N         21.5750   18.0630   28.4390 N.am  315  VAL315     -0.1979
     98  CA        22.2750   17.0310   29.1760 C.3   315  VAL315      0.1595
     99  C         21.5790   15.6970   28.9590 C.2   315  VAL315      0.2287
    100  O         22.2160   14.6600   28.7900 O.2   315  VAL315     -0.2864
    101  CB        22.2630   17.3430   30.7060 C.3   315  VAL315      0.0276
    102  CG1       23.0010   16.2740   31.4870 C.3   315  VAL315      0.0022
    103  CG2       22.8410   18.7150   30.9570 C.3   315  VAL315      0.0022
    104  N         19.4310   13.6610   26.5280 N.3   317  GLY317     -0.1210
    105  CA        19.0170   13.6120   25.1390 C.3   317  GLY317      0.1956
    106  C         17.7520   12.8330   24.8850 C.2   317  GLY317      0.2611
    107  O         17.0560   13.1040   23.9270 O.2   317  GLY317     -0.2717
    108  N         17.4540   11.8660   25.7430 N.am  318  GLN318     -0.1979
    109  CA        16.2860   11.0220   25.5430 C.3   318  GLN318      0.1601
    110  C         15.0010   11.7870   25.8590 C.2   318  GLN318      0.2287
    111  O         15.0090   12.7550   26.6160 O.2   318  GLN318     -0.2864
    112  CB        16.3880    9.7510   26.3890 C.3   318  GLN318      0.0394
    113  CG        17.4360    8.7180   25.8810 C.3   318  GLN318      0.0908
    114  CD        17.1450    8.1880   24.4830 C.2   318  GLN318      0.2608
    115  OE1       15.9780    7.9160   24.1220 O.2   318  GLN318     -0.2717
    116  NE2       18.1960    8.0330   23.6870 N.am  318  GLN318     -0.0878
@<TRIPOS>BOND
     1     8     6    1
     2     6     5    1
     3     7     5    1
     4     5     2    1
     5    27    28    2
     6    27    26    1
     7    25    26    1
     8    12    11    2
     9    26    29    1
    10     2     1    1
    11     2     3    1
    12    11    10    1
    13     3     4    2
    14     3     9   am
    15     9    10    1
    16    29    30    1
    17    10    13    1
    18    76    75    2
    19    31    30    2
    20    30    32   am
    21    13    15    1
    22    13    14    1
    23    88    89    1
    24    88    87    1
    25    85    83   ar
    26    85    86   ar
    27    75    87   am
    28    75    74    1
    29    83    80   ar
    30    89    90    2
    31    46    45    1
    32    77    74    1
    33    77    78    1
    34    45    42    1
    35    86    84   ar
    36    74    73    1
    37    80    78   ar
    38    80    82   ar
    39    78    79   ar
    40    16    17    1
    41    44    43    2
    42    84    82   ar
    43    82    81   ar
    44    42    43    1
    45    42    41    1
    46    79    81   ar
    47    73    64   am
    48    43    47   am
    49    17    18    1
    50    17    20    1
    51    65    64    2
    52    41    35   am
    53    64    63    1
    54    53    51    1
    55    18    19    2
    56    47    48    1
    57    20    21    1
    58    57    56    2
    59    48    51    1
    60    48    49    1
    61    35    36    2
    62    35    34    1
    63    51    52    1
    64    54    49   am
    65    54    55    1
    66    63    62    1
    67    63    66    1
    68    56    62   am
    69    56    55    1
    70    21    22    1
    71    49    50    2
    72    33    34    1
    73    34    37    1
    74    55    58    1
    75    66    67    1
    76    37    38    1
    77    58    59    1
    78    22    23    1
    79    23    24    1
    80    38    39    2
    81    38    40   am
    82    59    60   ar
    83    59    61   ar
    84    67    68   ar
    85    67    69   ar
    86    68    70   ar
    87   116   114   am
    88    69    71   ar
    89   107   106    2
    90   115   114    2
    91   114   113    1
    92    70    72   ar
    93   106   105    1
    94   106   108   am
    95   105   104    1
    96    71    72   ar
    97   109   108    1
    98   109   110    1
    99   109   112    1
   100   110   111    2
   101   113   112    1
   102    95    92    1
   103    95    96    1
   104    92    91    1
   105    92    93    1
   106    94    93    2
   107    93    97   am
   108    97    98    1
   109   100    99    2
   110    99    98    1
   111    98   101    1
   112   101   103    1
   113   101   102    1
