@<TRIPOS>MOLECULE
tmp/1t0sA00.pdb
 126 120 0 0 0
SMALL
GASTEIGER

@<TRIPOS>ATOM
      1  N         80.5120  104.4590   38.3530 N.3    91  THR91      -0.1218
      2  CA        79.9810  103.6490   39.4490 C.3    91  THR91       0.1862
      3  C         79.3300  102.3720   38.9220 C.2    91  THR91       0.2287
      4  O         79.5780  101.2790   39.4310 O.2    91  THR91      -0.2866
      5  CB        78.9140  104.4190   40.2600 C.3    91  THR91       0.1770
      6  OG1       79.5130  105.5580   40.8870 O.3    91  THR91      -0.2211
      7  CG2       78.3050  103.5150   41.3330 C.3    91  THR91       0.0375
      8  N         81.6900   99.7450   37.5120 N.3    94  LEU94      -0.1231
      9  CA        82.3740   99.0750   38.6030 C.3    94  LEU94       0.1693
     10  C         81.4460   98.0050   39.2060 C.2    94  LEU94       0.2592
     11  O         81.8560   96.8600   39.4190 O.2    94  LEU94      -0.2718
     12  CB        82.7770  100.1020   39.6610 C.3    94  LEU94       0.0284
     13  CG        83.2510   99.6110   41.0310 C.3    94  LEU94       0.0019
     14  CD1       84.2520   98.4900   40.8670 C.3    94  LEU94       0.0001
     15  CD2       83.8640  100.7800   41.7970 C.3    94  LEU94       0.0001
     16  N         80.1980   98.3840   39.4700 N.am   95  HIS95      -0.1976
     17  CA        79.2160   97.4620   40.0350 C.3    95  HIS95       0.1656
     18  C         79.0660   96.2050   39.1720 C.2    95  HIS95       0.2291
     19  O         79.3220   95.0840   39.6240 O.2    95  HIS95      -0.2864
     20  CB        77.8580   98.1550   40.1470 C.3    95  HIS95       0.0771
     21  CG        76.7530   97.2420   40.5770 C.ar   95  HIS95       0.0820
     22  ND1       76.6370   96.7710   41.8680 N.ar   95  HIS95      -0.2267
     23  CD2       75.7430   96.6730   39.8770 C.ar   95  HIS95       0.1154
     24  CE1       75.6050   95.9510   41.9440 C.ar   95  HIS95       0.1986
     25  NE2       75.0450   95.8740   40.7500 N.ar   95  HIS95      -0.2212
     26  N         82.1270   93.8030   38.7400 N.3    98  ALA98      -0.1231
     27  CA        82.4500   93.0410   39.9340 C.3    98  ALA98       0.1694
     28  C         81.3590   92.0800   40.4010 C.2    98  ALA98       0.2591
     29  O         81.6590   91.0650   41.0360 O.2    98  ALA98      -0.2718
     30  CB        82.7970   93.9900   41.0600 C.3    98  ALA98       0.0304
     31  N         80.1050   92.3770   40.0600 N.am   99  ILE99      -0.1980
     32  CA        78.9750   91.5730   40.5350 C.3    99  ILE99       0.1595
     33  C         78.2260   90.5990   39.6030 C.2    99  ILE99       0.2287
     34  O         77.8720   89.4950   40.0190 O.2    99  ILE99      -0.2864
     35  CB        77.9390   92.5260   41.2010 C.3    99  ILE99       0.0276
     36  CG1       78.5330   93.0910   42.4900 C.3    99  ILE99       0.0022
     37  CG2       76.6510   91.8030   41.5160 C.3    99  ILE99       0.0022
     38  CD1       79.0300   92.0250   43.4460 C.3    99  ILE99       0.0001
     39  N         77.2820   87.8260   54.8240 N.3   195  PHE195     -0.1241
     40  CA        77.3710   88.7650   53.7100 C.3   195  PHE195      0.1605
     41  C         76.0750   89.3180   53.1030 C.2   195  PHE195      0.2264
     42  O         75.9270   90.5350   52.9650 O.2   195  PHE195     -0.2867
     43  CB        78.2430   88.1580   52.6020 C.3   195  PHE195      0.0534
     44  CG        78.4840   89.0880   51.4510 C.ar  195  PHE195     -0.0203
     45  CD1       79.1340   90.3040   51.6490 C.ar  195  PHE195     -0.0042
     46  CD2       78.0410   88.7610   50.1720 C.ar  195  PHE195     -0.0042
     47  CE1       79.3390   91.1900   50.5870 C.ar  195  PHE195     -0.0003
     48  CE2       78.2400   89.6360   49.1020 C.ar  195  PHE195     -0.0003
     49  CZ        78.8900   90.8540   49.3110 C.ar  195  PHE195     -0.0000
     50  N         75.0110   93.3840   51.6720 N.3   200  THR200     -0.1218
     51  CA        74.2780   93.5940   50.4360 C.3   200  THR200      0.1862
     52  C         72.8030   93.9500   50.5530 C.2   200  THR200      0.2287
     53  O         72.3000   94.7260   49.7410 O.2   200  THR200     -0.2866
     54  CB        74.4250   92.3790   49.5060 C.3   200  THR200      0.1770
     55  OG1       73.9630   91.1970   50.1700 O.3   200  THR200     -0.2211
     56  CG2       75.8770   92.1910   49.1280 C.3   200  THR200      0.0375
     57  N         72.8910   97.5930   51.5500 N.3   203  GLN203     -0.1231
     58  CA        73.6970   98.2680   50.5450 C.3   203  GLN203      0.1698
     59  C         72.8680   98.5650   49.2990 C.2   203  GLN203      0.2592
     60  O         72.6800   99.7270   48.9240 O.2   203  GLN203     -0.2718
     61  CB        74.8860   97.3960   50.1640 C.3   203  GLN203      0.0381
     62  CG        75.5790   97.8520   48.9050 C.3   203  GLN203      0.0905
     63  CD        76.6180   96.8640   48.4380 C.2   203  GLN203      0.2608
     64  OE1       76.3300   95.6790   48.2520 O.2   203  GLN203     -0.2717
     65  NE2       77.8370   97.3450   48.2390 N.am  203  GLN203     -0.0878
     66  N         72.3790   97.5080   48.6590 N.am  204  PHE204     -0.1976
     67  CA        71.5690   97.6440   47.4560 C.3   204  PHE204      0.1639
     68  C         70.4650   98.6760   47.6420 C.2   204  PHE204      0.2290
     69  O         70.0730   99.3610   46.7000 O.2   204  PHE204     -0.2864
     70  CB        70.9450   96.2940   47.0780 C.3   204  PHE204      0.0560
     71  CG        71.8170   95.4440   46.1990 C.ar  204  PHE204     -0.0200
     72  CD1       73.1060   95.1050   46.5900 C.ar  204  PHE204     -0.0042
     73  CD2       71.3460   94.9830   44.9730 C.ar  204  PHE204     -0.0042
     74  CE1       73.9150   94.3210   45.7750 C.ar  204  PHE204     -0.0003
     75  CE2       72.1480   94.1980   44.1510 C.ar  204  PHE204     -0.0003
     76  CZ        73.4330   93.8670   44.5510 C.ar  204  PHE204     -0.0000
     77  N         72.1210  102.0110   47.2690 N.3   207  LEU207     -0.1245
     78  CA        72.5530  102.1580   45.8900 C.3   207  LEU207      0.1561
     79  C         71.3600  102.5910   45.0610 C.2   207  LEU207      0.2260
     80  O         71.4370  103.5440   44.2780 O.2   207  LEU207     -0.2867
     81  CB        73.1060  100.8310   45.3680 C.3   207  LEU207      0.0270
     82  CG        73.4560  100.7470   43.8780 C.3   207  LEU207      0.0019
     83  CD1       74.3650  101.9070   43.4770 C.3   207  LEU207      0.0001
     84  CD2       74.1360   99.4130   43.6060 C.3   207  LEU207      0.0001
     85  N         86.5510   93.6780   51.2970 N.3   267  LEU267     -0.1231
     86  CA        86.1040   93.8720   49.9240 C.3   267  LEU267      0.1693
     87  C         85.1250   95.0370   49.8630 C.2   267  LEU267      0.2592
     88  O         85.0910   95.7800   48.8830 O.2   267  LEU267     -0.2718
     89  CB        85.4250   92.6110   49.3820 C.3   267  LEU267      0.0284
     90  CG        84.9300   92.7450   47.9330 C.3   267  LEU267      0.0019
     91  CD1       86.1270   92.9250   47.0050 C.3   267  LEU267      0.0001
     92  CD2       84.1320   91.5210   47.5260 C.3   267  LEU267      0.0001
     93  N         84.3410   95.2060   50.9210 N.am  268  PHE268     -0.1976
     94  CA        83.3530   96.2790   50.9680 C.3   268  PHE268      0.1639
     95  C         83.9840   97.6760   50.9810 C.2   268  PHE268      0.2290
     96  O         83.4950   98.5870   50.3220 O.2   268  PHE268     -0.2864
     97  CB        82.4560   96.1150   52.2000 C.3   268  PHE268      0.0560
     98  CG        81.0430   96.6020   51.9960 C.ar  268  PHE268     -0.0200
     99  CD1       80.1760   95.9230   51.1410 C.ar  268  PHE268     -0.0042
    100  CD2       80.5760   97.7350   52.6600 C.ar  268  PHE268     -0.0042
    101  CE1       78.8670   96.3650   50.9520 C.ar  268  PHE268     -0.0003
    102  CE2       79.2630   98.1830   52.4740 C.ar  268  PHE268     -0.0003
    103  CZ        78.4080   97.4950   51.6180 C.ar  268  PHE268     -0.0000
    104  N         85.0770   98.7650   47.3250 N.3   271  LEU271     -0.1231
    105  CA        84.0260   98.9080   46.3210 C.3   271  LEU271      0.1693
    106  C         82.8450   99.8110   46.6760 C.2   271  LEU271      0.2592
    107  O         82.1430  100.2930   45.7840 O.2   271  LEU271     -0.2718
    108  CB        83.4980   97.5230   45.9380 C.3   271  LEU271      0.0284
    109  CG        84.5360   96.5260   45.4230 C.3   271  LEU271      0.0019
    110  CD1       83.8930   95.1710   45.2280 C.3   271  LEU271      0.0001
    111  CD2       85.1230   97.0300   44.1180 C.3   271  LEU271      0.0001
    112  N         82.6080  100.0370   47.9620 N.am  272  THR272     -0.1953
    113  CA        81.4830  100.8740   48.3690 C.3   272  THR272      0.1897
    114  C         81.9520  102.1760   48.9910 C.2   272  THR272      0.2313
    115  O         81.3840  103.2350   48.7300 O.2   272  THR272     -0.2863
    116  CB        80.5800  100.1470   49.3930 C.3   272  THR272      0.1794
    117  OG1       80.1410   98.9020   48.8460 O.3   272  THR272     -0.2208
    118  CG2       79.3630  101.0020   49.7370 C.3   272  THR272      0.0378
    119  N         82.9570  104.8890   46.6250 N.3   275  ILE275     -0.1245
    120  CA        81.7470  105.2900   45.9220 C.3   275  ILE275      0.1561
    121  C         80.9540  106.4210   46.5800 C.2   275  ILE275      0.2260
    122  O         80.8130  107.4980   46.0000 O.2   275  ILE275     -0.2867
    123  CB        80.7950  104.0940   45.7150 C.3   275  ILE275      0.0252
    124  CG1       81.5400  102.9310   45.0570 C.3   275  ILE275      0.0019
    125  CG2       79.6280  104.5170   44.8370 C.3   275  ILE275      0.0019
    126  CD1       82.0600  103.2290   43.6670 C.3   275  ILE275      0.0001
@<TRIPOS>BOND
     1     8     9    1
     2     1     2    1
     3     9    10    1
     4     9    12    1
     5    26    27    1
     6     3     4    2
     7     3     2    1
     8    18    19    2
     9    18    17    1
    10    10    11    2
    11    10    16   am
    12     2     5    1
    13    16    17    1
    14    33    34    2
    15    33    32    1
    16    12    13    1
    17    23    21   ar
    18    23    25   ar
    19    27    28    1
    20    27    30    1
    21    17    20    1
    22    31    28   am
    23    31    32    1
    24    20    21    1
    25     5     6    1
    26     5     7    1
    27    28    29    2
    28    32    35    1
    29    21    22   ar
    30    25    24   ar
    31    14    13    1
    32    13    15    1
    33    35    37    1
    34    35    36    1
    35    22    24   ar
    36    36    38    1
    37    83    82    1
    38    84    82    1
    39   126   124    1
    40    82    81    1
    41   111   109    1
    42    75    76   ar
    43    75    73   ar
    44    80    79    2
    45    76    74   ar
    46   125   123    1
    47    73    71   ar
    48   124   123    1
    49    79    78    1
    50   110   109    1
    51    81    78    1
    52   109   108    1
    53   123   120    1
    54    74    72   ar
    55   107   106    2
    56    78    77    1
    57   120   121    1
    58   120   119    1
    59   108   105    1
    60   122   121    2
    61    71    72   ar
    62    71    70    1
    63   105   106    1
    64   105   104    1
    65   106   112   am
    66    69    68    2
    67    91    90    1
    68    70    67    1
    69    67    68    1
    70    67    66    1
    71    92    90    1
    72    90    89    1
    73   112   113    1
    74    65    63   am
    75    64    63    2
    76   113   114    1
    77   113   116    1
    78    63    62    1
    79    66    59   am
    80   115   114    2
    81   117   116    1
    82    88    87    2
    83    62    61    1
    84    60    59    2
    85    48    49   ar
    86    48    46   ar
    87    56    54    1
    88    59    58    1
    89    49    47   ar
    90    89    86    1
    91   116   118    1
    92    54    55    1
    93    54    51    1
    94    53    52    2
    95    87    86    1
    96    87    93   am
    97    86    85    1
    98    61    58    1
    99    46    44   ar
   100    96    95    2
   101    51    52    1
   102    51    50    1
   103    58    57    1
   104    47    45   ar
   105    93    94    1
   106   101    99   ar
   107   101   103   ar
   108    94    95    1
   109    94    97    1
   110    99    98   ar
   111    44    45   ar
   112    44    43    1
   113   103   102   ar
   114    98    97    1
   115    98   100   ar
   116   102   100   ar
   117    43    40    1
   118    42    41    2
   119    41    40    1
   120    40    39    1
