@<TRIPOS>MOLECULE
tmp/1t0sA02.pdb
 103 98 0 0 0
SMALL
GASTEIGER

@<TRIPOS>ATOM
      1  N         76.6020  112.1710   35.0160 N.3    85  ASP85      -0.1239
      2  CA        77.8830  112.4560   35.6540 C.3    85  ASP85       0.1674
      3  C         78.8520  111.2840   35.5090 C.2    85  ASP85       0.2266
      4  O         78.4990  110.1360   35.7680 O.2    85  ASP85      -0.2867
      5  CB        77.6680  112.7740   37.1370 C.3    85  ASP85       0.1410
      6  CG        78.9450  113.2100   37.8370 C.2    85  ASP85       0.3668
      7  OD1       79.8600  112.3750   38.0040 O.co2  85  ASP85      -0.2456
      8  OD2       79.0330  114.3930   38.2230 O.co2  85  ASP85      -0.2456
      9  N         80.9730  110.3000   37.3180 N.3    87  GLY87      -0.1210
     10  CA        81.1230  109.6000   38.5810 C.3    87  GLY87       0.1956
     11  C         80.1270  108.4600   38.6630 C.2    87  GLY87       0.2611
     12  O         80.4480  107.3780   39.1340 O.2    87  GLY87      -0.2717
     13  N         78.9090  108.7140   38.1950 N.am   88  TRP88      -0.1976
     14  CA        77.8490  107.7110   38.1990 C.3    88  TRP88       0.1640
     15  C         78.1590  106.5980   37.1980 C.2    88  TRP88       0.2290
     16  O         78.2110  105.4210   37.5690 O.2    88  TRP88      -0.2864
     17  CB        76.5070  108.3550   37.8450 C.3    88  TRP88       0.0576
     18  CG        75.3680  107.3770   37.8320 C.ar   88  TRP88       0.0006
     19  CD1       74.4940  107.1510   36.8080 C.ar   88  TRP88       0.0946
     20  CD2       75.0000  106.4700   38.8820 C.ar   88  TRP88       0.0152
     21  NE1       73.6090  106.1570   37.1530 N.ar   88  TRP88      -0.2442
     22  CE2       73.8960  105.7220   38.4190 C.ar   88  TRP88       0.0810
     23  CE3       75.4980  106.2180   40.1670 C.ar   88  TRP88       0.0012
     24  CZ2       73.2810  104.7360   39.1950 C.ar   88  TRP88       0.0191
     25  CZ3       74.8880  105.2370   40.9400 C.ar   88  TRP88       0.0001
     26  CH2       73.7900  104.5080   40.4490 C.ar   88  TRP88       0.0015
     27  N         80.5120  104.4590   38.3530 N.3    91  THR91      -0.1218
     28  CA        79.9810  103.6490   39.4490 C.3    91  THR91       0.1862
     29  C         79.3300  102.3720   38.9220 C.2    91  THR91       0.2287
     30  O         79.5780  101.2790   39.4310 O.2    91  THR91      -0.2866
     31  CB        78.9140  104.4190   40.2600 C.3    91  THR91       0.1770
     32  OG1       79.5130  105.5580   40.8870 O.3    91  THR91      -0.2211
     33  CG2       78.3050  103.5150   41.3330 C.3    91  THR91       0.0375
     34  N         72.1210  102.0110   47.2690 N.3   207  LEU207     -0.1245
     35  CA        72.5530  102.1580   45.8900 C.3   207  LEU207      0.1561
     36  C         71.3600  102.5910   45.0610 C.2   207  LEU207      0.2260
     37  O         71.4370  103.5440   44.2780 O.2   207  LEU207     -0.2867
     38  CB        73.1060  100.8310   45.3680 C.3   207  LEU207      0.0270
     39  CG        73.4560  100.7470   43.8780 C.3   207  LEU207      0.0019
     40  CD1       74.3650  101.9070   43.4770 C.3   207  LEU207      0.0001
     41  CD2       74.1360   99.4130   43.6060 C.3   207  LEU207      0.0001
     42  N         70.4930  106.1860   45.9000 N.3   210  ASP210     -0.1239
     43  CA        71.4730  107.0950   45.3200 C.3   210  ASP210      0.1674
     44  C         71.3250  107.1440   43.8000 C.2   210  ASP210      0.2266
     45  O         71.3950  108.2150   43.1910 O.2   210  ASP210     -0.2867
     46  CB        72.8840  106.6520   45.7230 C.3   210  ASP210      0.1410
     47  CG        73.2020  106.9760   47.1830 C.2   210  ASP210      0.3668
     48  OD1       72.2580  107.2040   47.9740 O.co2 210  ASP210     -0.2456
     49  OD2       74.3980  106.9990   47.5460 O.co2 210  ASP210     -0.2456
     50  N         68.6790  109.4820   43.0350 N.3   213  GLU213     -0.1231
     51  CA        69.0920  110.8760   43.1680 C.3   213  GLU213      0.1699
     52  C         69.8000  111.2990   41.8810 C.2   213  GLU213      0.2592
     53  O         69.5240  112.3650   41.3220 O.2   213  GLU213     -0.2718
     54  CB        70.0550  111.0190   44.3480 C.3   213  GLU213      0.0402
     55  CG        70.4080  112.4560   44.7130 C.3   213  GLU213      0.1161
     56  CD        69.2890  113.1640   45.4550 C.2   213  GLU213      0.3649
     57  OE1       68.8890  112.6660   46.5310 O.co2 213  GLU213     -0.2457
     58  OE2       68.8140  114.2160   44.9670 O.co2 213  GLU213     -0.2457
     59  N         70.7110  110.4470   41.4210 N.am  214  ALA214     -0.1980
     60  CA        71.4760  110.7020   40.2040 C.3   214  ALA214      0.1597
     61  C         70.5740  110.9150   38.9990 C.2   214  ALA214      0.2287
     62  O         70.9620  111.5740   38.0360 O.2   214  ALA214     -0.2864
     63  CB        72.4280  109.5480   39.9350 C.3   214  ALA214      0.0319
     64  N         82.9570  104.8890   46.6250 N.3   275  ILE275     -0.1245
     65  CA        81.7470  105.2900   45.9220 C.3   275  ILE275      0.1561
     66  C         80.9540  106.4210   46.5800 C.2   275  ILE275      0.2260
     67  O         80.8130  107.4980   46.0000 O.2   275  ILE275     -0.2867
     68  CB        80.7950  104.0940   45.7150 C.3   275  ILE275      0.0252
     69  CG1       81.5400  102.9310   45.0570 C.3   275  ILE275      0.0019
     70  CG2       79.6280  104.5170   44.8370 C.3   275  ILE275      0.0019
     71  CD1       82.0600  103.2290   43.6670 C.3   275  ILE275      0.0001
     72  N         83.0090  109.4090   44.5970 N.3   279  TYR279     -0.1227
     73  CA        82.4190  109.4170   43.2590 C.3   279  TYR279      0.1736
     74  C         81.0610  110.1070   43.2610 C.2   279  TYR279      0.2596
     75  O         80.5670  110.5330   42.2200 O.2   279  TYR279     -0.2718
     76  CB        82.2540  107.9890   42.7130 C.3   279  TYR279      0.0548
     77  CG        83.5240  107.1570   42.5620 C.ar  279  TYR279     -0.0200
     78  CD1       83.5470  106.0550   41.7070 C.ar  279  TYR279     -0.0009
     79  CD2       84.6770  107.4310   43.3020 C.ar  279  TYR279     -0.0009
     80  CE1       84.6730  105.2490   41.5920 C.ar  279  TYR279      0.0417
     81  CE2       85.8140  106.6200   43.1920 C.ar  279  TYR279      0.0417
     82  CZ        85.7970  105.5300   42.3350 C.ar  279  TYR279      0.1957
     83  OH        86.8890  104.6980   42.2360 O.3   279  TYR279     -0.2866
     84  N         80.4580  110.2140   44.4380 N.am  280  THR280     -0.1939
     85  CA        79.1520  110.8480   44.5740 C.3   280  THR280      0.2013
     86  C         79.2840  112.3650   44.6670 C.2   280  THR280      0.2484
     87  O         80.0430  112.8780   45.4870 O.2   280  THR280     -0.2729
     88  CB        78.4350  110.3600   45.8490 C.3   280  THR280      0.1807
     89  OG1       79.2280  110.6910   46.9930 O.3   280  THR280     -0.2208
     90  CG2       78.2550  108.8630   45.8270 C.3   280  THR280      0.0379
     91  N         78.5520  113.1060   43.8210 N.am  281  PRO281     -0.2726
     92  CA        78.6220  114.5690   43.8600 C.3   281  PRO281      0.1402
     93  C         78.3780  115.0380   45.2910 C.2   281  PRO281      0.2269
     94  O         77.7600  114.3240   46.0800 O.2   281  PRO281     -0.2865
     95  CB        77.5070  114.9860   42.9120 C.3   281  PRO281      0.0296
     96  CG        77.5490  113.9080   41.8820 C.3   281  PRO281      0.0237
     97  CD        77.6750  112.6580   42.7300 C.3   281  PRO281      0.0939
     98  N         74.7680  115.7370   46.6500 N.3   284  SER284     -0.1217
     99  CA        73.9560  114.5280   46.6510 C.3   284  SER284      0.1889
    100  C         74.4990  113.5440   47.6700 C.2   284  SER284      0.2288
    101  O         74.3380  112.3330   47.5260 O.2   284  SER284     -0.2866
    102  CB        73.9530  113.8890   45.2620 C.3   284  SER284      0.2089
    103  OG        73.3400  114.7420   44.3120 O.3   284  SER284     -0.2183
@<TRIPOS>BOND
     1     1     2    1
     2     3     2    1
     3     3     4    2
     4     2     5    1
     5    19    21   ar
     6    19    18   ar
     7     5     6    1
     8    21    22   ar
     9    15    16    2
    10    15    14    1
    11     9    10    1
    12    18    17    1
    13    18    20   ar
    14     6     7   ar
    15     6     8   ar
    16    17    14    1
    17    62    61    2
    18    13    14    1
    19    13    11   am
    20    27    28    1
    21    22    20   ar
    22    22    24   ar
    23    10    11    1
    24    11    12    2
    25    20    23   ar
    26    29    30    2
    27    29    28    1
    28    61    60    1
    29    24    26   ar
    30    28    31    1
    31    63    60    1
    32    23    25   ar
    33    60    59    1
    34    31    32    1
    35    31    33    1
    36    26    25   ar
    37    53    52    2
    38    59    52   am
    39    80    78   ar
    40    80    82   ar
    41    78    77   ar
    42    52    51    1
    43    96    97    1
    44    96    95    1
    45    75    74    2
    46    83    82    1
    47    82    81   ar
    48    77    76    1
    49    77    79   ar
    50    76    73    1
    51    97    91    1
    52    95    92    1
    53    50    51    1
    54    51    54    1
    55    45    44    2
    56    81    79   ar
    57    73    74    1
    58    73    72    1
    59    74    84   am
    60    40    39    1
    61    41    39    1
    62    71    69    1
    63    44    43    1
    64    91    92    1
    65    91    86   am
    66    92    93    1
    67    39    38    1
    68    37    36    2
    69   103   102    1
    70    54    55    1
    71    84    85    1
    72    85    86    1
    73    85    88    1
    74    86    87    2
    75    55    56    1
    76    70    68    1
    77    58    56   ar
    78    69    68    1
    79    36    35    1
    80   102    99    1
    81    93    94    2
    82    43    46    1
    83    43    42    1
    84    38    35    1
    85    56    57   ar
    86    68    65    1
    87    46    47    1
    88    90    88    1
    89    88    89    1
    90    35    34    1
    91    65    66    1
    92    65    64    1
    93    67    66    2
    94    98    99    1
    95    99   100    1
    96    47    49   ar
    97    47    48   ar
    98   101   100    2
