@<TRIPOS>MOLECULE
tmp/1t0sA03.pdb
 89 87 0 0 0
SMALL
GASTEIGER

@<TRIPOS>ATOM
      1  N         96.3960  104.1960   41.1130 N.3   337  TRP337     -0.1241
      2  CA        96.5760  103.0840   40.1790 C.3   337  TRP337      0.1605
      3  C         95.3960  103.0160   39.2030 C.2   337  TRP337      0.2264
      4  O         95.0700  101.9610   38.6690 O.2   337  TRP337     -0.2867
      5  CB        96.6920  101.7690   40.9560 C.3   337  TRP337      0.0550
      6  CG        98.0880  101.4300   41.3940 C.ar  337  TRP337      0.0003
      7  CD1       98.9660  100.6030   40.7530 C.ar  337  TRP337      0.0946
      8  CD2       98.7750  101.9150   42.5590 C.ar  337  TRP337      0.0152
      9  NE1      100.1530  100.5380   41.4440 N.ar  337  TRP337     -0.2442
     10  CE2      100.0660  101.3340   42.5560 C.ar  337  TRP337      0.0810
     11  CE3       98.4260  102.7850   43.6040 C.ar  337  TRP337      0.0012
     12  CZ2      101.0110  101.5920   43.5590 C.ar  337  TRP337      0.0191
     13  CZ3       99.3690  103.0420   44.6040 C.ar  337  TRP337      0.0001
     14  CH2      100.6470  102.4450   44.5700 C.ar  337  TRP337      0.0015
     15  N         94.8040  100.7350   36.1200 N.3   340  THR340     -0.1218
     16  CA        94.7560   99.2940   36.3100 C.3   340  THR340      0.1862
     17  C         93.3680   98.7290   36.6190 C.2   340  THR340      0.2287
     18  O         93.2420   97.5510   36.9250 O.2   340  THR340     -0.2866
     19  CB        95.7410   98.8540   37.4090 C.3   340  THR340      0.1770
     20  OG1       95.3240   99.3750   38.6760 O.3   340  THR340     -0.2211
     21  CG2       97.1250   99.3750   37.0990 C.3   340  THR340      0.0375
     22  N        101.6720  105.1780   39.0820 N.3   389  PRO389     -0.2102
     23  CA       102.7410  104.3130   39.5930 C.3   389  PRO389      0.1504
     24  C        103.7270  103.7390   38.5800 C.2   389  PRO389      0.2576
     25  O        103.5050  103.7930   37.3720 O.2   389  PRO389     -0.2718
     26  CB       101.9630  103.2120   40.2960 C.3   389  PRO389      0.0282
     27  CG       100.8280  103.0060   39.3390 C.3   389  PRO389      0.0208
     28  CD       100.4020  104.4320   38.9930 C.3   389  PRO389      0.0893
     29  N        104.8100  103.1770   39.1090 N.am  390  GLU390     -0.1966
     30  CA       105.8590  102.5540   38.3190 C.3   390  GLU390      0.1733
     31  C        106.2760  101.2820   39.0300 C.2   390  GLU390      0.2617
     32  O        107.2920  100.6670   38.7070 O.2   390  GLU390     -0.2715
     33  CB       107.0570  103.4910   38.1770 C.3   390  GLU390      0.0429
     34  CG       106.9410  104.4570   37.0170 C.3   390  GLU390      0.1163
     35  CD       108.1960  105.2840   36.8290 C.2   390  GLU390      0.3649
     36  OE1      108.3780  106.2660   37.5800 O.co2 390  GLU390     -0.2457
     37  OE2      109.0040  104.9450   35.9380 O.co2 390  GLU390     -0.2457
     38  N        105.4670  100.8940   40.0070 N.am  391  THR391     -0.1937
     39  CA       105.7140   99.6920   40.7840 C.3   391  THR391      0.2028
     40  C        104.4030   99.1070   41.3130 C.2   391  THR391      0.2642
     41  O        103.3580   99.7520   41.2670 O.2   391  THR391     -0.2714
     42  CB       106.6170   99.9950   41.9780 C.3   391  THR391      0.1808
     43  OG1      106.8930   98.7820   42.6840 O.3   391  THR391     -0.2208
     44  CG2      105.9340  100.9770   42.9170 C.3   391  THR391      0.0379
     45  N        104.4710   97.8800   41.8140 N.am  392  LEU392     -0.1977
     46  CA       103.2970   97.2140   42.3620 C.3   392  LEU392      0.1596
     47  C        103.1790   97.4850   43.8560 C.2   392  LEU392      0.2287
     48  O        104.1810   97.4740   44.5780 O.2   392  LEU392     -0.2864
     49  CB       103.3950   95.7000   42.1650 C.3   392  LEU392      0.0297
     50  CG       103.2110   95.0860   40.7790 C.3   392  LEU392      0.0022
     51  CD1      103.6820   93.6460   40.8020 C.3   392  LEU392      0.0001
     52  CD2      101.7490   95.1770   40.3640 C.3   392  LEU392      0.0001
     53  N        104.4060   87.9190   40.2660 N.3   453  PHE453     -0.1241
     54  CA       105.4040   88.7660   39.6260 C.3   453  PHE453      0.1605
     55  C        106.8070   88.2920   40.0190 C.2   453  PHE453      0.2264
     56  O        107.6680   88.0850   39.1630 O.2   453  PHE453     -0.2867
     57  CB       105.2300   90.2230   40.0600 C.3   453  PHE453      0.0534
     58  CG       106.1010   91.1900   39.2980 C.ar  453  PHE453     -0.0203
     59  CD1      105.6970   91.6850   38.0590 C.ar  453  PHE453     -0.0042
     60  CD2      107.3410   91.5760   39.8000 C.ar  453  PHE453     -0.0042
     61  CE1      106.5110   92.5460   37.3300 C.ar  453  PHE453     -0.0003
     62  CE2      108.1650   92.4350   39.0800 C.ar  453  PHE453     -0.0003
     63  CZ       107.7480   92.9230   37.8380 C.ar  453  PHE453     -0.0000
     64  N        108.2750   91.1910   32.4490 N.3   461  ALA461     -0.1231
     65  CA       108.1630   91.5880   33.8430 C.3   461  ALA461      0.1694
     66  C        108.2650   93.1030   34.0420 C.2   461  ALA461      0.2592
     67  O        109.1420   93.5840   34.7420 O.2   461  ALA461     -0.2718
     68  CB       109.2260   90.8720   34.6630 C.3   461  ALA461      0.0304
     69  N        107.3550   93.8460   33.4230 N.am  462  ASP462     -0.1960
     70  CA       107.3310   95.2980   33.5400 C.3   462  ASP462      0.1840
     71  C        105.8820   95.7680   33.5010 C.2   462  ASP462      0.2621
     72  O        104.9590   94.9550   33.4520 O.2   462  ASP462     -0.2715
     73  CB       108.1150   95.9530   32.3920 C.3   462  ASP462      0.1450
     74  CG       107.6420   95.4960   31.0160 C.2   462  ASP462      0.3671
     75  OD1      106.4290   95.2540   30.8510 O.co2 462  ASP462     -0.2456
     76  OD2      108.4790   95.3910   30.0900 O.co2 462  ASP462     -0.2456
     77  N        105.6840   97.0810   33.5060 N.am  463  LEU463     -0.1977
     78  CA       104.3420   97.6400   33.4750 C.3   463  LEU463      0.1596
     79  C        103.4840   97.0890   32.3390 C.2   463  LEU463      0.2287
     80  O        102.3940   96.5730   32.5840 O.2   463  LEU463     -0.2864
     81  CB       104.4140   99.1690   33.3840 C.3   463  LEU463      0.0297
     82  CG       103.1430   99.9190   32.9550 C.3   463  LEU463      0.0022
     83  CD1      103.1300  101.3040   33.5700 C.3   463  LEU463      0.0001
     84  CD2      103.0840  100.0180   31.4290 C.3   463  LEU463      0.0001
     85  N        102.4520   93.5200   32.8920 N.3   466  ALA466     -0.1245
     86  CA       101.4600   93.3550   33.9400 C.3   466  ALA466      0.1562
     87  C        100.0860   93.7410   33.3930 C.2   466  ALA466      0.2260
     88  O         99.0960   93.0730   33.6660 O.2   466  ALA466     -0.2867
     89  CB       101.8140   94.2190   35.1490 C.3   466  ALA466      0.0290
@<TRIPOS>BOND
     1    76    74   ar
     2    75    74   ar
     3    74    73    1
     4    84    82    1
     5    79    80    2
     6    79    78    1
     7    73    70    1
     8    64    65    1
     9    85    86    1
    10    82    81    1
    11    82    83    1
    12    81    78    1
    13    87    88    2
    14    87    86    1
    15    69    70    1
    16    69    66   am
    17    72    71    2
    18    78    77    1
    19    71    77   am
    20    71    70    1
    21    65    66    1
    22    65    68    1
    23    86    89    1
    24    66    67    2
    25    37    35   ar
    26    15    16    1
    27    16    17    1
    28    16    19    1
    29    17    18    2
    30    35    34    1
    31    35    36   ar
    32    34    33    1
    33    21    19    1
    34    61    63   ar
    35    61    59   ar
    36    25    24    2
    37    19    20    1
    38    63    62   ar
    39    59    58   ar
    40    33    30    1
    41    30    31    1
    42    30    29    1
    43    24    29   am
    44    24    23    1
    45     4     3    2
    46    32    31    2
    47    28    22    1
    48    28    27    1
    49    31    38   am
    50    62    60   ar
    51    22    23    1
    52    56    55    2
    53     3     2    1
    54    58    60   ar
    55    58    57    1
    56    27    26    1
    57    23    26    1
    58    54    55    1
    59    54    57    1
    60    54    53    1
    61    38    39    1
    62     2     5    1
    63     2     1    1
    64    52    50    1
    65     7     6   ar
    66     7     9   ar
    67    50    51    1
    68    50    49    1
    69    39    40    1
    70    39    42    1
    71     5     6    1
    72    41    40    2
    73    40    45   am
    74     6     8   ar
    75     9    10   ar
    76    45    46    1
    77    42    43    1
    78    42    44    1
    79    49    46    1
    80    46    47    1
    81    10     8   ar
    82    10    12   ar
    83     8    11   ar
    84    12    14   ar
    85    11    13   ar
    86    47    48    2
    87    14    13   ar
