@<TRIPOS>MOLECULE
tmp/1t0tE00.pdb
 166 156 0 0 0
SMALL
GASTEIGER

@<TRIPOS>ATOM
      1  N        -25.6250  -45.8370  -48.5450 N.3   104  GLU104     -0.1245
      2  CA       -25.5570  -45.7170  -47.1060 C.3   104  GLU104      0.1567
      3  C        -26.5900  -44.7250  -46.6280 C.2   104  GLU104      0.2260
      4  O        -26.6460  -43.6320  -47.1570 O.2   104  GLU104     -0.2867
      5  CB       -24.1510  -45.2020  -46.8080 C.3   104  GLU104      0.0388
      6  CG       -23.8470  -44.8170  -45.3960 C.3   104  GLU104      0.1160
      7  CD       -22.4770  -44.1740  -45.3150 C.2   104  GLU104      0.3649
      8  OE1      -22.4270  -42.9320  -45.2430 O.co2 104  GLU104     -0.2457
      9  OE2      -21.4680  -44.9250  -45.3540 O.co2 104  GLU104     -0.2457
     10  N        -27.8790  -42.5300  -43.1250 N.3   106  SER106     -0.1202
     11  CA       -27.6000  -42.1070  -41.7390 C.3   106  SER106      0.2020
     12  C        -28.8920  -41.6350  -41.0580 C.2   106  SER106      0.2618
     13  O        -29.0980  -41.8570  -39.8600 O.2   106  SER106     -0.2717
     14  CB       -26.6080  -40.9340  -41.7040 C.3   106  SER106      0.2103
     15  OG       -25.3950  -41.1820  -42.4090 O.3   106  SER106     -0.2182
     16  N        -29.7420  -40.9940  -41.8450 N.am  107  ASN107     -0.1974
     17  CA       -30.9450  -40.3300  -41.3560 C.3   107  ASN107      0.1688
     18  C        -32.1730  -41.1970  -41.5020 C.2   107  ASN107      0.2292
     19  O        -32.7160  -41.3730  -42.5810 O.2   107  ASN107     -0.2864
     20  CB       -31.1500  -39.0080  -42.1190 C.3   107  ASN107      0.1181
     21  CG       -32.3340  -38.1920  -41.5890 C.2   107  ASN107      0.2629
     22  OD1      -32.8090  -38.3980  -40.4590 O.2   107  ASN107     -0.2716
     23  ND2      -32.8160  -37.2650  -42.4080 N.am  107  ASN107     -0.0877
     24  N        -15.8300  -37.6700  -52.4300 N.3   141  MET141     -0.1245
     25  CA       -15.4580  -36.7340  -51.3700 C.3   141  MET141      0.1570
     26  C        -14.7850  -37.4670  -50.2200 C.2   141  MET141      0.2261
     27  O        -15.1770  -38.5830  -49.8730 O.2   141  MET141     -0.2867
     28  CB       -16.7270  -36.0790  -50.7760 C.3   141  MET141      0.0387
     29  CG       -17.3830  -35.0310  -51.5860 C.3   141  MET141      0.0595
     30  SD       -18.5460  -34.3170  -50.3630 S.3   141  MET141     -0.1393
     31  CE       -17.4790  -33.1310  -49.5300 C.3   141  MET141      0.0692
     32  N        -13.8950  -36.4040  -45.9320 N.3   143  LYS143     -0.1245
     33  CA       -13.9220  -35.4010  -44.8500 C.3   143  LYS143      0.1561
     34  C        -12.4960  -35.1440  -44.3910 C.2   143  LYS143      0.2260
     35  O        -11.7170  -36.0610  -44.1420 O.2   143  LYS143     -0.2867
     36  CB       -14.7670  -35.8950  -43.6600 C.3   143  LYS143      0.0271
     37  CG       -16.2810  -35.8770  -43.9450 C.3   143  LYS143      0.0035
     38  CD       -16.8750  -34.5100  -43.7260 C.3   143  LYS143      0.0206
     39  CE       -18.4200  -34.5010  -43.8360 C.3   143  LYS143      0.1093
     40  NZ       -19.0450  -34.9930  -42.6000 N.3   143  LYS143     -0.1314
     41  N        -23.5810  -30.8480  -39.4510 N.3   163  MET163     -0.1245
     42  CA       -24.3080  -31.5250  -40.5020 C.3   163  MET163      0.1570
     43  C        -25.7010  -30.9320  -40.6420 C.2   163  MET163      0.2261
     44  O        -26.3700  -31.1320  -41.6400 O.2   163  MET163     -0.2867
     45  CB       -24.4000  -33.0120  -40.2120 C.3   163  MET163      0.0387
     46  CG       -23.0900  -33.7830  -40.5480 C.3   163  MET163      0.0595
     47  SD       -22.5030  -33.6680  -42.2690 S.3   163  MET163     -0.1393
     48  CE       -23.1480  -35.1850  -42.9640 C.3   163  MET163      0.0692
     49  N        -25.8200  -28.3130  -43.2740 N.3   166  HIS166     -0.1226
     50  CA       -25.7070  -29.0460  -44.5310 C.3   166  HIS166      0.1752
     51  C        -27.0750  -29.6280  -44.9300 C.2   166  HIS166      0.2596
     52  O        -27.5500  -29.4460  -46.0650 O.2   166  HIS166     -0.2718
     53  CB       -24.6730  -30.1700  -44.3300 C.3   166  HIS166      0.0759
     54  CG       -24.4040  -30.9980  -45.5490 C.ar  166  HIS166      0.0818
     55  ND1      -24.6530  -32.3530  -45.5950 N.ar  166  HIS166     -0.2268
     56  CD2      -23.7810  -30.6920  -46.7110 C.ar  166  HIS166      0.1154
     57  CE1      -24.2680  -32.8290  -46.7730 C.ar  166  HIS166      0.1986
     58  NE2      -23.7910  -31.8230  -47.4880 N.ar  166  HIS166     -0.2212
     59  N        -27.7870  -30.1840  -43.9490 N.am  167  GLY167     -0.1957
     60  CA       -29.1290  -30.6600  -44.1960 C.3   167  GLY167      0.1869
     61  C        -30.0790  -29.5360  -44.5810 C.2   167  GLY167      0.2309
     62  O        -30.9110  -29.6910  -45.4700 O.2   167  GLY167     -0.2863
     63  N        -29.5800  -28.5860  -48.2700 N.3   170  GLY170     -0.1210
     64  CA       -30.2250  -29.5790  -49.1240 C.3   170  GLY170      0.1956
     65  C        -31.7250  -29.3800  -49.2500 C.2   170  GLY170      0.2611
     66  O        -32.3010  -29.5780  -50.2960 O.2   170  GLY170     -0.2717
     67  N        -32.3690  -28.9960  -48.1440 N.am  171  ARG171     -0.1979
     68  CA       -33.8020  -28.9390  -48.0850 C.3   171  ARG171      0.1597
     69  C        -34.2900  -27.8670  -49.0380 C.2   171  ARG171      0.2287
     70  O        -35.3570  -28.0040  -49.6240 O.2   171  ARG171     -0.2864
     71  CB       -34.2640  -28.5960  -46.6750 C.3   171  ARG171      0.0334
     72  CG       -34.2440  -29.7680  -45.7360 C.3   171  ARG171      0.0492
     73  CD       -34.6480  -29.3580  -44.2900 C.3   171  ARG171      0.2205
     74  NE       -34.5810  -30.4740  -43.3560 N.pl3 171  ARG171     -0.0865
     75  CZ       -35.6240  -31.2210  -43.0260 C.cat 171  ARG171      0.5346
     76  NH1      -36.8290  -30.8970  -43.4760 N.pl3 171  ARG171      0.1354
     77  NH2      -35.4690  -32.2680  -42.2150 N.pl3 171  ARG171      0.1354
     78  N        -33.4600  -27.5370  -52.0220 N.3   173  TYR173     -0.1227
     79  CA       -33.4460  -28.0730  -53.3700 C.3   173  TYR173      0.1736
     80  C        -34.4110  -29.2300  -53.4800 C.2   173  TYR173      0.2595
     81  O        -34.4150  -29.9620  -54.4540 O.2   173  TYR173     -0.2718
     82  CB       -32.0010  -28.5040  -53.6800 C.3   173  TYR173      0.0548
     83  CG       -31.1220  -27.3080  -53.8560 C.ar  173  TYR173     -0.0200
     84  CD1      -30.9140  -26.7860  -55.1350 C.ar  173  TYR173     -0.0009
     85  CD2      -30.5190  -26.6790  -52.7840 C.ar  173  TYR173     -0.0009
     86  CE1      -30.2250  -25.5850  -55.3070 C.ar  173  TYR173      0.0417
     87  CE2      -29.8090  -25.4910  -52.9550 C.ar  173  TYR173      0.0417
     88  CZ       -29.6410  -24.9880  -54.2280 C.ar  173  TYR173      0.1957
     89  OH       -28.9090  -23.8520  -54.4370 O.3   173  TYR173     -0.2866
     90  N        -35.3500  -29.3100  -52.5240 N.am  174  ALA174     -0.1966
     91  CA       -36.4030  -30.3080  -52.5950 C.3   174  ALA174      0.1728
     92  C        -37.1700  -30.2310  -53.8960 C.2   174  ALA174      0.2616
     93  O        -37.6230  -29.1640  -54.3170 O.2   174  ALA174     -0.2715
     94  CB       -37.3570  -30.1160  -51.4320 C.3   174  ALA174      0.0334
     95  N        -37.3050  -31.3540  -54.5620 N.am  175  GLY175     -0.1955
     96  CA       -38.0280  -31.3850  -55.8030 C.3   175  GLY175      0.1869
     97  C        -37.1590  -31.0660  -57.0080 C.2   175  GLY175      0.2309
     98  O        -37.6520  -31.1170  -58.1130 O.2   175  GLY175     -0.2863
     99  N        -33.3970  -31.4300  -57.1290 N.3   177  VAL177     -0.1231
    100  CA       -32.2670  -32.3680  -57.2450 C.3   177  VAL177      0.1692
    101  C        -32.5340  -33.5200  -56.2960 C.2   177  VAL177      0.2593
    102  O        -33.1140  -33.3190  -55.2190 O.2   177  VAL177     -0.2718
    103  CB       -30.9760  -31.6620  -56.7940 C.3   177  VAL177      0.0266
    104  CG1      -29.7790  -32.6080  -56.8850 C.3   177  VAL177      0.0020
    105  CG2      -30.7160  -30.4850  -57.6680 C.3   177  VAL177      0.0020
    106  N        -32.0930  -34.7210  -56.6690 N.am  178  THR178     -0.1939
    107  CA       -31.9840  -35.8020  -55.7220 C.3   178  THR178      0.2028
    108  C        -30.5470  -36.3250  -55.6900 C.2   178  THR178      0.2642
    109  O        -29.8030  -36.1740  -56.6520 O.2   178  THR178     -0.2714
    110  CB       -32.9210  -36.9730  -55.9750 C.3   178  THR178      0.1808
    111  OG1      -32.7360  -37.4990  -57.2580 O.3   178  THR178     -0.2208
    112  CG2      -34.3810  -36.5660  -56.0700 C.3   178  THR178      0.0379
    113  N        -30.1660  -36.7790  -54.5130 N.am  179  GLN179     -0.1976
    114  CA       -28.7670  -37.0880  -54.2100 C.3   179  GLN179      0.1601
    115  C        -28.7560  -38.5340  -53.7070 C.2   179  GLN179      0.2287
    116  O        -29.3560  -38.8350  -52.6740 O.2   179  GLN179     -0.2864
    117  CB       -28.2760  -36.1140  -53.1600 C.3   179  GLN179      0.0394
    118  CG       -26.9340  -36.4360  -52.5510 C.3   179  GLN179      0.0908
    119  CD       -26.5830  -35.5100  -51.4320 C.2   179  GLN179      0.2608
    120  OE1      -27.0480  -35.7050  -50.2690 O.2   179  GLN179     -0.2717
    121  NE2      -25.8480  -34.4560  -51.7460 N.am  179  GLN179     -0.0878
    122  N        -26.1090  -40.8630  -51.8830 N.3   181  ILE181     -0.1245
    123  CA       -24.8710  -40.9360  -51.1510 C.3   181  ILE181      0.1561
    124  C        -24.4950  -42.4030  -51.0310 C.2   181  ILE181      0.2260
    125  O        -25.2940  -43.2520  -50.6070 O.2   181  ILE181     -0.2867
    126  CB       -25.0310  -40.3480  -49.7490 C.3   181  ILE181      0.0252
    127  CG1      -25.3080  -38.8470  -49.8640 C.3   181  ILE181      0.0019
    128  CG2      -23.7620  -40.5960  -48.9850 C.3   181  ILE181      0.0019
    129  CD1      -24.2220  -38.0920  -50.5720 C.3   181  ILE181      0.0001
    130  N        -16.7650  -41.0930  -49.6800 N.3   192  TRP192     -0.1241
    131  CA       -18.1490  -41.1200  -50.1780 C.3   192  TRP192      0.1605
    132  C        -18.1510  -40.8220  -51.6540 C.2   192  TRP192      0.2264
    133  O        -17.3230  -40.0550  -52.1630 O.2   192  TRP192     -0.2867
    134  CB       -19.0720  -40.0970  -49.4520 C.3   192  TRP192      0.0550
    135  CG       -19.3460  -40.4850  -47.9970 C.ar  192  TRP192      0.0003
    136  CD1      -20.3470  -41.2770  -47.5340 C.ar  192  TRP192      0.0946
    137  CD2      -18.6020  -40.0760  -46.8550 C.ar  192  TRP192      0.0152
    138  NE1      -20.2470  -41.4310  -46.1740 N.ar  192  TRP192     -0.2442
    139  CE2      -19.2040  -40.6650  -45.7240 C.ar  192  TRP192      0.0810
    140  CE3      -17.4830  -39.2570  -46.6680 C.ar  192  TRP192      0.0012
    141  CZ2      -18.6170  -40.6480  -44.4590 C.ar  192  TRP192      0.0191
    142  CZ3      -17.0310  -39.0490  -45.3660 C.ar  192  TRP192      0.0001
    143  CH2      -17.5580  -39.8040  -44.2770 C.ar  192  TRP192      0.0015
    144  N        -20.8540  -39.1190  -54.2470 N.3   194  VAL194     -0.1245
    145  CA       -22.0520  -38.3240  -54.3820 C.3   194  VAL194      0.1561
    146  C        -22.5580  -38.3160  -55.8190 C.2   194  VAL194      0.2260
    147  O        -21.8720  -37.8460  -56.7070 O.2   194  VAL194     -0.2867
    148  CB       -21.7770  -36.8930  -53.9530 C.3   194  VAL194      0.0252
    149  CG1      -23.0570  -36.0920  -53.9960 C.3   194  VAL194      0.0019
    150  CG2      -21.2020  -36.8570  -52.6160 C.3   194  VAL194      0.0019
    151  N        -26.4390  -25.8410  -56.2030 N.3   207  LEU207     -0.1245
    152  CA       -26.3940  -26.6270  -54.9770 C.3   207  LEU207      0.1561
    153  C        -25.0000  -26.7840  -54.4070 C.2   207  LEU207      0.2260
    154  O        -24.7560  -26.5070  -53.2320 O.2   207  LEU207     -0.2867
    155  CB       -26.9980  -28.0010  -55.1990 C.3   207  LEU207      0.0270
    156  CG       -26.8580  -29.0210  -54.0530 C.3   207  LEU207      0.0019
    157  CD1      -27.5030  -28.5380  -52.7340 C.3   207  LEU207      0.0001
    158  CD2      -27.4010  -30.3660  -54.4290 C.3   207  LEU207      0.0001
    159  N        -23.6510  -25.1930  -50.9370 N.3   211  MET211     -0.1245
    160  CA       -23.1270  -26.0800  -49.9010 C.3   211  MET211      0.1570
    161  C        -21.7640  -25.6420  -49.4210 C.2   211  MET211      0.2261
    162  O        -21.4270  -25.7840  -48.2370 O.2   211  MET211     -0.2867
    163  CB       -23.0820  -27.5230  -50.4270 C.3   211  MET211      0.0387
    164  CG       -24.4650  -28.1720  -50.3140 C.3   211  MET211      0.0595
    165  SD       -24.4700  -29.9660  -50.5000 S.3   211  MET211     -0.1393
    166  CE       -23.7130  -30.2060  -52.0610 C.3   211  MET211      0.0692
@<TRIPOS>BOND
     1    98    97    2
     2   105   103    1
     3   111   110    1
     4   100    99    1
     5   100   103    1
     6   100   101    1
     7    97    96    1
     8   104   103    1
     9   147   146    2
    10   106   101   am
    11   106   107    1
    12   109   108    2
    13   101   102    2
    14   151   152    1
    15   112   110    1
    16   110   107    1
    17   146   145    1
    18    96    95    1
    19   107   108    1
    20   108   113   am
    21    86    84   ar
    22    86    88   ar
    23   155   152    1
    24   155   156    1
    25    84    83   ar
    26   152   153    1
    27    95    92   am
    28   113   114    1
    29    81    80    2
    30    89    88    1
    31   158   156    1
    32   153   154    2
    33   145   144    1
    34   145   148    1
    35    93    92    2
    36    88    87   ar
    37   114   115    1
    38   114   117    1
    39   156   157    1
    40   149   148    1
    41   148   150    1
    42    92    91    1
    43    83    82    1
    44    83    85   ar
    45   115   116    2
    46    82    79    1
    47    80    79    1
    48    80    90   am
    49    79    78    1
    50   117   118    1
    51    87    85   ar
    52    91    90    1
    53    91    94    1
    54   118   119    1
    55    24    25    1
    56   133   132    2
    57   166   165    1
    58   122   123    1
    59   121   119   am
    60   132   131    1
    61    29    28    1
    62    29    30    1
    63   119   120    2
    64    25    28    1
    65    25    26    1
    66   123   124    1
    67   123   126    1
    68   124   125    2
    69   159   160    1
    70   129   127    1
    71   165   164    1
    72   163   164    1
    73   163   160    1
    74    30    31    1
    75    66    65    2
    76    26    27    2
    77   131   130    1
    78   131   134    1
    79   160   161    1
    80   127   126    1
    81   126   128    1
    82    70    69    2
    83   134   135    1
    84   161   162    2
    85    65    64    1
    86    65    67   am
    87    64    63    1
    88    69    68    1
    89     1     2    1
    90    67    68    1
    91    68    71    1
    92   135   136   ar
    93   135   137   ar
    94   136   138   ar
    95    58    57   ar
    96    58    56   ar
    97     4     3    2
    98     2     5    1
    99     2     3    1
   100   137   140   ar
   101   137   139   ar
   102     5     6    1
   103    57    55   ar
   104    56    54   ar
   105    71    72    1
   106   140   142   ar
   107   138   139   ar
   108    52    51    2
   109    32    33    1
   110    72    73    1
   111   139   141   ar
   112    55    54   ar
   113    54    53    1
   114    62    61    2
   115     6     7    1
   116   142   143   ar
   117     9     7   ar
   118     7     8   ar
   119    51    50    1
   120    51    59   am
   121    33    34    1
   122    33    36    1
   123    61    60    1
   124    50    53    1
   125    50    49    1
   126   141   143   ar
   127    34    35    2
   128    73    74    1
   129    60    59    1
   130    37    38    1
   131    37    36    1
   132    39    38    1
   133    39    40    1
   134    76    75    1
   135    74    75    2
   136    10    11    1
   137    75    77    1
   138    48    47    1
   139    19    18    2
   140    15    14    1
   141    23    21   am
   142    47    46    1
   143    20    21    1
   144    20    17    1
   145    16    17    1
   146    16    12   am
   147    11    14    1
   148    11    12    1
   149    44    43    2
   150    21    22    2
   151    18    17    1
   152    12    13    2
   153    43    42    1
   154    46    45    1
   155    42    45    1
   156    42    41    1
