@<TRIPOS>MOLECULE
tmp/1t0tC00.pdb
 162 152 0 0 0
SMALL
GASTEIGER

@<TRIPOS>ATOM
      1  N          4.9570  -58.6260  -40.7020 N.3   104  GLU104     -0.1245
      2  CA         5.5870  -57.9460  -39.5850 C.3   104  GLU104      0.1567
      3  C          4.7040  -58.1680  -38.3610 C.2   104  GLU104      0.2260
      4  O          3.5130  -57.8470  -38.4180 O.2   104  GLU104     -0.2867
      5  CB         5.6470  -56.4740  -39.9200 C.3   104  GLU104      0.0388
      6  CG         6.4200  -55.6270  -38.9770 C.3   104  GLU104      0.1160
      7  CD         6.3490  -54.1720  -39.3420 C.2   104  GLU104      0.3649
      8  OE1        5.4330  -53.4620  -38.8170 O.co2 104  GLU104     -0.2457
      9  OE2        7.3090  -53.7440  -40.0340 O.co2 104  GLU104     -0.2457
     10  N          4.4050  -57.0720  -34.1340 N.3   106  SER106     -0.1202
     11  CA         4.8930  -56.3750  -32.9200 C.3   106  SER106      0.2020
     12  C          4.3820  -57.0170  -31.6240 C.2   106  SER106      0.2618
     13  O          5.1660  -57.2400  -30.6880 O.2   106  SER106     -0.2717
     14  CB         4.4840  -54.9160  -32.9240 C.3   106  SER106      0.2103
     15  OG         4.2480  -54.4710  -34.2550 O.3   106  SER106     -0.2182
     16  N          3.1070  -57.3920  -31.6200 N.am  107  ASN107     -0.1974
     17  CA         2.4630  -58.0160  -30.4380 C.3   107  ASN107      0.1688
     18  C          2.7570  -59.4940  -30.2980 C.2   107  ASN107      0.2292
     19  O          2.0850  -60.3370  -30.8980 O.2   107  ASN107     -0.2864
     20  CB         0.9240  -57.8830  -30.4480 C.3   107  ASN107      0.1181
     21  CG         0.4350  -56.5910  -31.0330 C.2   107  ASN107      0.2629
     22  OD1        0.8600  -55.5050  -30.6150 O.2   107  ASN107     -0.2716
     23  ND2       -0.6020  -56.6900  -31.8750 N.am  107  ASN107     -0.0877
     24  N         -0.4910  -47.7390  -46.2180 N.3   141  MET141     -0.1245
     25  CA        -0.5900  -46.6650  -45.2590 C.3   141  MET141      0.1570
     26  C          0.7630  -46.0510  -44.9290 C.2   141  MET141      0.2261
     27  O          1.7610  -46.7710  -44.7780 O.2   141  MET141     -0.2867
     28  CB        -1.1510  -47.1970  -43.9340 C.3   141  MET141      0.0387
     29  CG        -2.5750  -47.2630  -43.9040 C.3   141  MET141      0.0595
     30  SD        -2.9810  -47.7380  -42.1920 S.3   141  MET141     -0.1393
     31  CE        -3.1960  -46.0730  -41.5410 C.3   141  MET141      0.0692
     32  N          2.2960  -43.5910  -41.4760 N.3   143  LYS143     -0.1245
     33  CA         1.9880  -42.7280  -40.3140 C.3   143  LYS143      0.1561
     34  C          2.4270  -41.3140  -40.6540 C.2   143  LYS143      0.2260
     35  O          3.5400  -41.0920  -41.1150 O.2   143  LYS143     -0.2867
     36  CB         2.6690  -43.2430  -39.0140 C.3   143  LYS143      0.0271
     37  CG         2.0350  -44.5440  -38.4870 C.3   143  LYS143      0.0035
     38  CD         0.8660  -44.3180  -37.5330 C.3   143  LYS143      0.0206
     39  CE         0.3270  -45.6650  -36.9120 C.3   143  LYS143      0.1093
     40  NZ         0.6440  -46.8350  -37.7320 N.3   143  LYS143     -0.1314
     41  N         -2.0210  -46.6820  -29.8410 N.3   163  MET163     -0.1245
     42  CA        -2.2240  -47.9640  -30.4800 C.3   163  MET163      0.1570
     43  C         -3.1860  -48.8590  -29.6810 C.2   163  MET163      0.2261
     44  O         -3.8010  -49.7400  -30.2480 O.2   163  MET163     -0.2867
     45  CB        -0.8910  -48.6800  -30.6520 C.3   163  MET163      0.0387
     46  CG        -0.0560  -48.1060  -31.8080 C.3   163  MET163      0.0595
     47  SD        -0.8080  -48.1660  -33.4470 S.3   163  MET163     -0.1393
     48  CE        -0.4710  -49.8560  -33.9250 C.3   163  MET163      0.0692
     49  N         -6.6390  -48.5130  -31.0640 N.3   166  HIS166     -0.1226
     50  CA        -6.6640  -49.1260  -32.3690 C.3   166  HIS166      0.1752
     51  C         -6.8710  -50.6380  -32.2270 C.2   166  HIS166      0.2596
     52  O         -7.7240  -51.2380  -32.8720 O.2   166  HIS166     -0.2718
     53  CB        -5.3230  -48.8200  -33.0340 C.3   166  HIS166      0.0759
     54  CG        -5.1570  -49.4190  -34.3950 C.ar  166  HIS166      0.0818
     55  ND1       -5.8870  -48.9910  -35.4850 N.ar  166  HIS166     -0.2268
     56  CD2       -4.2170  -50.2710  -34.8770 C.ar  166  HIS166      0.1154
     57  CE1       -5.4760  -49.6430  -36.5610 C.ar  166  HIS166      0.1986
     58  NE2       -4.4720  -50.4360  -36.2150 N.ar  166  HIS166     -0.2212
     59  N         -6.0970  -51.2250  -31.3140 N.am  167  GLY167     -0.1957
     60  CA        -6.2500  -52.6130  -30.9230 C.3   167  GLY167      0.1869
     61  C         -7.6300  -52.9530  -30.4280 C.2   167  GLY167      0.2309
     62  O         -8.1860  -53.9510  -30.8310 O.2   167  GLY167     -0.2863
     63  N        -10.1250  -53.1420  -33.3380 N.3   170  GLY170     -0.1210
     64  CA        -9.9140  -54.4240  -34.0020 C.3   170  GLY170      0.1956
     65  C        -10.5860  -55.5780  -33.2800 C.2   170  GLY170      0.2611
     66  O        -11.1560  -56.4630  -33.8990 O.2   170  GLY170     -0.2717
     67  N        -10.4460  -55.6190  -31.9650 N.am  171  ARG171     -0.1979
     68  CA       -11.0490  -56.7260  -31.2160 C.3   171  ARG171      0.1597
     69  C        -12.5310  -56.8730  -31.5070 C.2   171  ARG171      0.2287
     70  O        -13.0790  -57.9890  -31.5000 O.2   171  ARG171     -0.2864
     71  CB       -10.8180  -56.5140  -29.7310 C.3   171  ARG171      0.0334
     72  CG        -9.3890  -56.7110  -29.3380 C.3   171  ARG171      0.0492
     73  CD        -9.1670  -56.4720  -27.8450 C.3   171  ARG171      0.2205
     74  NE        -7.7700  -56.6510  -27.4730 N.pl3 171  ARG171     -0.0865
     75  CZ        -7.2990  -57.6930  -26.8000 C.cat 171  ARG171      0.5346
     76  NH1       -8.1190  -58.6520  -26.3740 N.pl3 171  ARG171      0.1354
     77  NH2       -5.9970  -57.7580  -26.5310 N.pl3 171  ARG171      0.1354
     78  N        -13.9590  -56.8740  -34.1480 N.3   173  TYR173     -0.1227
     79  CA       -14.2080  -57.6150  -35.3930 C.3   173  TYR173      0.1736
     80  C        -13.6070  -59.0190  -35.3970 C.2   173  TYR173      0.2595
     81  O        -13.4760  -59.6330  -36.4430 O.2   173  TYR173     -0.2718
     82  CB       -13.7280  -56.8070  -36.6190 C.3   173  TYR173      0.0548
     83  CG       -14.4930  -55.5200  -36.8090 C.ar  173  TYR173     -0.0200
     84  CD1      -15.4810  -55.4050  -37.7890 C.ar  173  TYR173     -0.0009
     85  CD2      -14.2080  -54.4140  -36.0540 C.ar  173  TYR173     -0.0009
     86  CE1      -16.2430  -54.2890  -37.8810 C.ar  173  TYR173      0.0417
     87  CE2      -14.9510  -53.2750  -36.1720 C.ar  173  TYR173      0.0417
     88  CZ       -15.9700  -53.2230  -37.0750 C.ar  173  TYR173      0.1957
     89  OH       -16.7190  -52.0790  -37.1760 O.3   173  TYR173     -0.2866
     90  N        -13.2810  -59.5180  -34.2040 N.am  174  ALA174     -0.1980
     91  CA       -12.8960  -60.9170  -34.0070 C.3   174  ALA174      0.1597
     92  C        -13.8670  -61.8330  -34.6760 C.2   174  ALA174      0.2287
     93  O        -15.0720  -61.7820  -34.4250 O.2   174  ALA174     -0.2864
     94  CB       -12.8600  -61.2520  -32.5250 C.3   174  ALA174      0.0319
     95  N        -13.2970  -60.4040  -39.5890 N.3   177  VAL177     -0.1231
     96  CA       -12.2990  -59.9420  -40.5220 C.3   177  VAL177      0.1692
     97  C        -10.9470  -60.4190  -39.9820 C.2   177  VAL177      0.2593
     98  O        -10.7470  -60.4550  -38.7600 O.2   177  VAL177     -0.2718
     99  CB       -12.2330  -58.4130  -40.5370 C.3   177  VAL177      0.0266
    100  CG1      -11.1370  -57.9850  -41.5690 C.3   177  VAL177      0.0020
    101  CG2      -13.5390  -57.8230  -40.9210 C.3   177  VAL177      0.0020
    102  N        -10.0620  -60.8600  -40.8810 N.am  178  THR178     -0.1939
    103  CA        -8.6420  -61.0090  -40.5210 C.3   178  THR178      0.2028
    104  C         -7.8130  -60.0530  -41.3250 C.2   178  THR178      0.2642
    105  O         -8.0840  -59.8260  -42.5180 O.2   178  THR178     -0.2714
    106  CB        -8.0570  -62.4070  -40.6100 C.3   178  THR178      0.1808
    107  OG1       -8.2050  -62.9190  -41.9090 O.3   178  THR178     -0.2208
    108  CG2       -8.8370  -63.3850  -39.7390 C.3   178  THR178      0.0379
    109  N         -6.7620  -59.5730  -40.6630 N.am  179  GLN179     -0.1976
    110  CA        -5.9020  -58.5400  -41.1980 C.3   179  GLN179      0.1601
    111  C         -4.5050  -59.0660  -41.2290 C.2   179  GLN179      0.2287
    112  O         -3.9900  -59.5150  -40.2260 O.2   179  GLN179     -0.2864
    113  CB        -5.9700  -57.3660  -40.2430 C.3   179  GLN179      0.0394
    114  CG        -5.0480  -56.2060  -40.5320 C.3   179  GLN179      0.0908
    115  CD        -5.1710  -55.1220  -39.4920 C.2   179  GLN179      0.2608
    116  OE1       -4.5350  -55.2170  -38.4130 O.2   179  GLN179     -0.2717
    117  NE2       -5.9390  -54.0710  -39.7990 N.am  179  GLN179     -0.0878
    118  N         -0.8240  -57.5880  -41.7450 N.3   181  ILE181     -0.1245
    119  CA        -0.0680  -56.3290  -41.7650 C.3   181  ILE181      0.1561
    120  C          1.2950  -56.7220  -42.2650 C.2   181  ILE181      0.2260
    121  O          1.9020  -57.6770  -41.7750 O.2   181  ILE181     -0.2867
    122  CB         0.0580  -55.6800  -40.3910 C.3   181  ILE181      0.0252
    123  CG1       -1.2700  -55.1350  -39.8710 C.3   181  ILE181      0.0019
    124  CG2        1.1190  -54.5740  -40.4280 C.3   181  ILE181      0.0019
    125  CD1       -2.0350  -54.2660  -40.7960 C.3   181  ILE181      0.0001
    126  N          3.3430  -49.2860  -44.4870 N.3   192  TRP192     -0.1241
    127  CA         2.6960  -50.6140  -44.2720 C.3   192  TRP192      0.1605
    128  C          1.7190  -50.9690  -45.3930 C.2   192  TRP192      0.2264
    129  O          1.1030  -50.1040  -46.0130 O.2   192  TRP192     -0.2867
    130  CB         1.9410  -50.7170  -42.9620 C.3   192  TRP192      0.0550
    131  CG         2.8540  -50.6920  -41.7640 C.ar  192  TRP192      0.0003
    132  CD1        3.4530  -51.7700  -41.1390 C.ar  192  TRP192      0.0946
    133  CD2        3.2750  -49.5290  -41.0440 C.ar  192  TRP192      0.0152
    134  NE1        4.2300  -51.3220  -40.0930 N.ar  192  TRP192     -0.2442
    135  CE2        4.1840  -49.9560  -40.0500 C.ar  192  TRP192      0.0810
    136  CE3        3.0660  -48.1620  -41.2090 C.ar  192  TRP192      0.0012
    137  CZ2        4.8830  -49.0670  -39.2380 C.ar  192  TRP192      0.0191
    138  CZ3        3.7500  -47.2810  -40.3870 C.ar  192  TRP192      0.0001
    139  CH2        4.6360  -47.7330  -39.4120 C.ar  192  TRP192      0.0015
    140  N         -1.8490  -53.1490  -45.7490 N.3   194  VAL194     -0.1245
    141  CA        -2.9250  -53.7470  -44.9820 C.3   194  VAL194      0.1561
    142  C         -3.7930  -54.5760  -45.8750 C.2   194  VAL194      0.2260
    143  O         -4.3570  -54.0580  -46.8220 O.2   194  VAL194     -0.2867
    144  CB        -3.7710  -52.6890  -44.2810 C.3   194  VAL194      0.0252
    145  CG1       -4.8990  -53.3210  -43.4150 C.3   194  VAL194      0.0019
    146  CG2       -2.8750  -51.8250  -43.4170 C.3   194  VAL194      0.0019
    147  N        -15.2220  -51.6610  -40.5690 N.3   207  LEU207     -0.1245
    148  CA       -13.9860  -51.6670  -39.8140 C.3   207  LEU207      0.1561
    149  C        -13.1180  -50.4780  -40.0670 C.2   207  LEU207      0.2260
    150  O        -12.7470  -49.7750  -39.1440 O.2   207  LEU207     -0.2867
    151  CB       -13.2060  -52.9270  -40.1720 C.3   207  LEU207      0.0270
    152  CG       -11.8030  -52.9560  -39.5910 C.3   207  LEU207      0.0019
    153  CD1      -11.6850  -52.8410  -38.0690 C.3   207  LEU207      0.0001
    154  CD2      -11.1450  -54.1920  -40.0930 C.3   207  LEU207      0.0001
    155  N        -12.3390  -47.4210  -37.4090 N.3   211  MET211     -0.1245
    156  CA       -10.9490  -47.1240  -37.0380 C.3   211  MET211      0.1570
    157  C        -10.6180  -45.6830  -37.2100 C.2   211  MET211      0.2261
    158  O         -9.7460  -45.1450  -36.5180 O.2   211  MET211     -0.2867
    159  CB        -9.9870  -47.9680  -37.8580 C.3   211  MET211      0.0387
    160  CG        -9.8900  -49.3930  -37.3140 C.3   211  MET211      0.0595
    161  SD        -8.5320  -50.3320  -38.0770 S.3   211  MET211     -0.1393
    162  CE        -8.9460  -50.2190  -39.7210 C.3   211  MET211      0.0692
@<TRIPOS>BOND
     1   143   142    2
     2    24    25    1
     3   129   128    2
     4   142   141    1
     5   140   141    1
     6   128   127    1
     7    25    26    1
     8    25    28    1
     9   141   144    1
    10    26    27    2
    11   126   127    1
    12   144   146    1
    13   144   145    1
    14   127   130    1
    15    28    29    1
    16    29    30    1
    17   130   131    1
    18   105   104    2
    19   120   121    2
    20   120   119    1
    21    30    31    1
    22   107   106    1
    23   119   118    1
    24   119   122    1
    25   131   132   ar
    26   131   133   ar
    27   100    99    1
    28    32    33    1
    29   104   109   am
    30   104   103    1
    31   111   110    1
    32   111   112    2
    33   136   133   ar
    34   136   138   ar
    35   110   109    1
    36   110   113    1
    37   132   134   ar
    38    35    34    2
    39   133   135   ar
    40   101    99    1
    41   102   103    1
    42   102    97   am
    43   125   123    1
    44     1     2    1
    45    34    33    1
    46   106   103    1
    47   106   108    1
    48   147   148    1
    49    99    96    1
    50   114   113    1
    51   114   115    1
    52    96    97    1
    53    96    95    1
    54   124   122    1
    55   122   123    1
    56   138   139   ar
    57    33    36    1
    58   151   148    1
    59   151   152    1
    60   154   152    1
    61   134   135   ar
    62   149   148    1
    63   149   150    2
    64   135   137   ar
    65     9     7   ar
    66    97    98    2
    67     5     2    1
    68     5     6    1
    69   117   115   am
    70   162   161    1
    71   152   153    1
    72     2     3    1
    73   115   116    2
    74   139   137   ar
    75     7     6    1
    76     7     8   ar
    77    36    37    1
    78    37    38    1
    79     4     3    2
    80   161   160    1
    81    86    84   ar
    82    86    88   ar
    83   159   160    1
    84   159   156    1
    85    84    83   ar
    86    40    39    1
    87    38    39    1
    88   155   156    1
    89   157   156    1
    90   157   158    2
    91    89    88    1
    92    88    87   ar
    93    83    82    1
    94    83    85   ar
    95    82    79    1
    96    57    58   ar
    97    57    55   ar
    98    81    80    2
    99    58    56   ar
   100    87    85   ar
   101    55    54   ar
   102    80    79    1
   103    80    90   am
   104    79    78    1
   105    56    54   ar
   106    92    93    2
   107    92    91    1
   108    54    53    1
   109    15    14    1
   110    90    91    1
   111    10    11    1
   112    91    94    1
   113    64    63    1
   114    64    65    1
   115    48    47    1
   116    66    65    2
   117    47    46    1
   118    65    67   am
   119    53    50    1
   120    14    11    1
   121    11    12    1
   122    52    51    2
   123    50    51    1
   124    50    49    1
   125    51    59   am
   126    67    68    1
   127    23    21   am
   128    46    45    1
   129    12    16   am
   130    12    13    2
   131    16    17    1
   132    69    70    2
   133    69    68    1
   134    59    60    1
   135    68    71    1
   136    21    22    2
   137    21    20    1
   138    60    61    1
   139    19    18    2
   140    62    61    2
   141    45    42    1
   142    42    41    1
   143    42    43    1
   144    20    17    1
   145    17    18    1
   146    44    43    2
   147    71    72    1
   148    72    73    1
   149    73    74    1
   150    74    75    2
   151    75    77    1
   152    75    76    1
