@<TRIPOS>MOLECULE
tmp/1t10A00.pdb
 90 84 0 0 0
SMALL
GASTEIGER

@<TRIPOS>ATOM
      1  N         30.5020   16.8070  134.8370 N.3   155  GLY155     -0.1210
      2  CA        29.1240   17.2140  134.5640 C.3   155  GLY155      0.1956
      3  C         28.8370   18.6500  135.0450 C.2   155  GLY155      0.2612
      4  O         29.7700   19.3450  135.5090 O.2   155  GLY155     -0.2717
      5  N         27.5600   19.0890  134.9640 N.am  156  ILE156     -0.1965
      6  CA        27.1480   20.4800  135.2790 C.3   156  ILE156      0.1727
      7  C         25.8140   20.5960  136.0410 C.2   156  ILE156      0.2617
      8  O         25.0500   19.6450  136.1000 O.2   156  ILE156     -0.2715
      9  CB        27.1070   21.3780  133.9710 C.3   156  ILE156      0.0290
     10  CG1       25.8730   22.3140  133.9760 C.3   156  ILE156      0.0022
     11  CG2       27.1890   20.5180  132.6600 C.3   156  ILE156      0.0023
     12  CD1       25.1580   22.4640  132.6520 C.3   156  ILE156      0.0001
     13  N         25.5400   21.7620  136.6320 N.am  157  GLY157     -0.1940
     14  CA        24.2450   22.0230  137.2420 C.3   157  GLY157      0.2014
     15  C         23.9650   21.1730  138.4860 C.2   157  GLY157      0.2639
     16  O         24.7770   21.1310  139.4020 O.2   157  GLY157     -0.2714
     17  N         22.8120   20.4970  138.5100 N.am  158  GLY158     -0.1939
     18  CA        22.4980   19.4940  139.5320 C.3   158  GLY158      0.2014
     19  C         23.4430   18.2890  139.5640 C.2   158  GLY158      0.2639
     20  O         23.4770   17.5540  140.5380 O.2   158  GLY158     -0.2714
     21  N         24.2170   18.0890  138.4980 N.am  159  SER159     -0.1949
     22  CA        25.2700   17.0550  138.4590 C.3   159  SER159      0.1924
     23  C         26.6250   17.5080  139.0490 C.2   159  SER159      0.2314
     24  O         27.6330   16.8000  138.9330 O.2   159  SER159     -0.2863
     25  CB        25.4910   16.5820  137.0020 C.3   159  SER159      0.2116
     26  OG        24.5220   15.6080  136.6370 O.3   159  SER159     -0.2180
     27  N         28.9160   11.6090  134.4480 N.3   208  ALA208     -0.1231
     28  CA        27.5060   11.7620  134.8400 C.3   208  ALA208      0.1694
     29  C         26.5460   12.1450  133.7000 C.2   208  ALA208      0.2593
     30  O         26.2210   13.3400  133.5300 O.2   208  ALA208     -0.2718
     31  CB        27.4080   12.8000  135.9510 C.3   208  ALA208      0.0304
     32  N         26.0250   11.1120  133.0220 N.am  209  SER209     -0.1938
     33  CA        25.1500   11.2170  131.8240 C.3   209  SER209      0.2055
     34  C         24.1940   10.0000  131.7020 C.2   209  SER209      0.2643
     35  O         24.6320    8.8750  131.6850 O.2   209  SER209     -0.2714
     36  CB        26.0260   11.2930  130.5260 C.3   209  SER209      0.2130
     37  OG        25.2560   11.1940  129.3170 O.3   209  SER209     -0.2179
     38  N         22.9000   10.2290  131.5500 N.am  210  LYS210     -0.1963
     39  CA        21.9240    9.1310  131.4530 C.3   210  LYS210      0.1728
     40  C         21.8650    8.3810  130.1340 C.2   210  LYS210      0.2616
     41  O         21.6920    7.1610  130.1430 O.2   210  LYS210     -0.2715
     42  CB        20.5170    9.5900  131.8050 C.3   210  LYS210      0.0311
     43  CG        19.6260    8.4030  132.1620 C.3   210  LYS210      0.0038
     44  CD        18.3600    8.8310  132.8350 C.3   210  LYS210      0.0206
     45  CE        17.5440    7.6010  133.2800 C.3   210  LYS210      0.1093
     46  NZ        16.9100    6.7850  132.1610 N.3   210  LYS210     -0.1314
     47  N         21.9420    9.1100  129.0200 N.am  211  THR211     -0.1951
     48  CA        22.1040    8.5100  127.6980 C.3   211  THR211      0.1897
     49  C         23.5640    8.1240  127.4110 C.2   211  THR211      0.2313
     50  O         23.8140    7.2690  126.5480 O.2   211  THR211     -0.2863
     51  CB        21.6840    9.5020  126.5590 C.3   211  THR211      0.1794
     52  OG1       20.3490    9.9890  126.7360 O.3   211  THR211     -0.2208
     53  CG2       21.5860    8.7710  125.2190 C.3   211  THR211      0.0378
     54  N         25.6740   12.6790  125.7020 N.3   214  THR214     -0.1218
     55  CA        25.4760   14.1210  125.8680 C.3   214  THR214      0.1862
     56  C         26.7680   14.9510  125.6100 C.2   214  THR214      0.2287
     57  O         27.7660   14.8430  126.3510 O.2   214  THR214     -0.2866
     58  CB        24.9090   14.4010  127.2570 C.3   214  THR214      0.1770
     59  OG1       23.5670   13.9190  127.3110 O.3   214  THR214     -0.2211
     60  CG2       24.7630   15.9130  127.5140 C.3   214  THR214      0.0375
     61  N         29.5880   17.2760  128.3480 N.3   217  THR217     -0.1218
     62  CA        30.1740   16.3160  129.2910 C.3   217  THR217      0.1862
     63  C         30.9940   15.1690  128.6760 C.2   217  THR217      0.2287
     64  O         32.0480   14.8060  129.2040 O.2   217  THR217     -0.2866
     65  CB        29.0180   15.6890  130.1590 C.3   217  THR217      0.1770
     66  OG1       28.3990   16.7070  130.9700 O.3   217  THR217     -0.2211
     67  CG2       29.5530   14.6420  131.1770 C.3   217  THR217      0.0375
     68  N         20.4810    5.7510  137.5330 N.3   270  PHE270     -0.1241
     69  CA        19.4380    6.4790  138.2410 C.3   270  PHE270      0.1605
     70  C         18.3130    6.6910  137.2440 C.2   270  PHE270      0.2264
     71  O         18.4340    6.3060  136.0910 O.2   270  PHE270     -0.2867
     72  CB        19.9570    7.8030  138.8250 C.3   270  PHE270      0.0534
     73  CG        20.5520    8.6880  137.7990 C.ar  270  PHE270     -0.0203
     74  CD1       21.8150    8.4160  137.3060 C.ar  270  PHE270     -0.0042
     75  CD2       19.8230    9.7290  137.2680 C.ar  270  PHE270     -0.0042
     76  CE1       22.3630    9.1870  136.3330 C.ar  270  PHE270     -0.0003
     77  CE2       20.3590   10.5180  136.2890 C.ar  270  PHE270     -0.0003
     78  CZ        21.6350   10.2470  135.8050 C.ar  270  PHE270     -0.0000
     79  N         17.3700   16.6440  138.6270 N.3   276  GLY276     -0.1225
     80  CA        18.7440   17.0640  138.7840 C.3   276  GLY276      0.1811
     81  C         19.0170   17.7010  140.1170 C.2   276  GLY276      0.2280
     82  O         19.9770   17.3280  140.8310 O.2   276  GLY276     -0.2866
     83  N         24.2770    9.9120  141.2940 N.3   284  ILE284     -0.1245
     84  CA        24.9470   11.2100  141.1550 C.3   284  ILE284      0.1561
     85  C         25.8240   11.5040  142.3820 C.2   284  ILE284      0.2260
     86  O         26.8720   12.1270  142.2940 O.2   284  ILE284     -0.2867
     87  CB        23.9310   12.3660  140.9970 C.3   284  ILE284      0.0252
     88  CG1       23.4810   12.5450  139.5590 C.3   284  ILE284      0.0019
     89  CG2       24.5710   13.7150  141.3080 C.3   284  ILE284      0.0019
     90  CD1       22.5590   11.5220  139.1150 C.3   284  ILE284      0.0001
@<TRIPOS>BOND
     1    53    51    1
     2    56    55    1
     3    56    57    2
     4    54    55    1
     5    55    58    1
     6    50    49    2
     7    51    52    1
     8    51    48    1
     9    58    59    1
    10    58    60    1
    11    49    48    1
    12    48    47    1
    13    61    62    1
    14    63    64    2
    15    63    62    1
    16    47    40   am
    17    62    65    1
    18    37    36    1
    19    40    41    2
    20    40    39    1
    21    65    66    1
    22    65    67    1
    23    36    33    1
    24    39    38    1
    25    39    42    1
    26    38    34   am
    27    35    34    2
    28    34    33    1
    29    42    43    1
    30    33    32    1
    31    46    45    1
    32    43    44    1
    33    12    10    1
    34    11     9    1
    35    44    45    1
    36    32    29   am
    37    30    29    2
    38    29    28    1
    39     9    10    1
    40     9     6    1
    41    27    28    1
    42     2     1    1
    43     2     3    1
    44    28    31    1
    45     5     3   am
    46     5     6    1
    47     3     4    2
    48     6     7    1
    49    78    77   ar
    50    78    76   ar
    51     7     8    2
    52     7    13   am
    53    71    70    2
    54    77    75   ar
    55    76    74   ar
    56    13    14    1
    57    26    25    1
    58    25    22    1
    59    14    15    1
    60    70    69    1
    61    75    73   ar
    62    74    73   ar
    63    68    69    1
    64    73    72    1
    65    69    72    1
    66    22    21    1
    67    22    23    1
    68    15    17   am
    69    15    16    2
    70    21    19   am
    71    17    18    1
    72    79    80    1
    73    80    81    1
    74    24    23    2
    75    90    88    1
    76    18    19    1
    77    88    87    1
    78    19    20    2
    79    81    82    2
    80    87    84    1
    81    87    89    1
    82    84    83    1
    83    84    85    1
    84    86    85    2
