@<TRIPOS>MOLECULE
tmp/1t13A00.pdb
 118 118 0 0 0
SMALL
GASTEIGER

@<TRIPOS>ATOM
      1  N         81.1440   36.9070   28.0420 N.3    11  ALA11      -0.1245
      2  CA        81.9050   37.2370   26.8470 C.3    11  ALA11       0.1562
      3  C         83.2740   36.5640   26.9930 C.2    11  ALA11       0.2260
      4  O         83.7520   36.3240   28.1050 O.2    11  ALA11      -0.2867
      5  CB        82.0590   38.7480   26.7230 C.3    11  ALA11       0.0290
      6  N         86.2080   37.7660   25.5690 N.3    13  TRP13      -0.1227
      7  CA        87.3410   38.6760   25.4700 C.3    13  TRP13       0.1737
      8  C         87.8500   38.7940   26.8960 C.2    13  TRP13       0.2595
      9  O         87.0580   38.9080   27.8230 O.2    13  TRP13      -0.2718
     10  CB        86.9010   40.0500   24.9800 C.3    13  TRP13       0.0564
     11  CG        86.8800   40.1900   23.4950 C.ar   13  TRP13       0.0003
     12  CD1       86.1280   39.4720   22.6150 C.ar   13  TRP13       0.0946
     13  CD2       87.6270   41.1320   22.7130 C.ar   13  TRP13       0.0152
     14  NE1       86.3550   39.9090   21.3310 N.ar   13  TRP13      -0.2442
     15  CE2       87.2710   40.9270   21.3620 C.ar   13  TRP13       0.0810
     16  CE3       88.5600   42.1300   23.0230 C.ar   13  TRP13       0.0012
     17  CZ2       87.8160   41.6870   20.3170 C.ar   13  TRP13       0.0191
     18  CZ3       89.1020   42.8860   21.9820 C.ar   13  TRP13       0.0001
     19  CH2       88.7260   42.6580   20.6470 C.ar   13  TRP13       0.0015
     20  N         89.1590   38.7640   27.0880 N.am   14  HIS14      -0.1975
     21  CA        89.6960   38.8570   28.4420 C.3    14  HIS14       0.1656
     22  C         89.0610   37.7580   29.2830 C.2    14  HIS14       0.2291
     23  O         88.7960   37.9400   30.4730 O.2    14  HIS14      -0.2864
     24  CB        89.3750   40.2220   29.0530 C.3    14  HIS14       0.0771
     25  CG        89.8070   41.3710   28.2020 C.ar   14  HIS14       0.0820
     26  ND1       91.1300   41.6120   27.8970 N.ar   14  HIS14      -0.2267
     27  CD2       89.0880   42.3060   27.5350 C.ar   14  HIS14       0.1154
     28  CE1       91.2060   42.6430   27.0740 C.ar   14  HIS14       0.1986
     29  NE2       89.9810   43.0810   26.8380 N.ar   14  HIS14      -0.2212
     30  N         81.2500   35.2230   22.1170 N.3    45  PRO45      -0.2102
     31  CA        82.4770   35.8220   21.5850 C.3    45  PRO45       0.1504
     32  C         82.8950   37.0730   22.3710 C.2    45  PRO45       0.2576
     33  O         83.8820   37.0570   23.1170 O.2    45  PRO45      -0.2718
     34  CB        82.0970   36.1450   20.1390 C.3    45  PRO45       0.0282
     35  CG        81.0910   35.0980   19.8110 C.3    45  PRO45       0.0208
     36  CD        80.2410   35.0710   21.0540 C.3    45  PRO45       0.0893
     37  N         82.1290   38.1490   22.1900 N.am   46  GLY46      -0.1943
     38  CA        82.4080   39.4030   22.8620 C.3    46  GLY46       0.2014
     39  C         81.1590   40.0070   23.4710 C.2    46  GLY46       0.2639
     40  O         80.0490   39.5430   23.2270 O.2    46  GLY46      -0.2714
     41  N         81.3420   41.0610   24.2560 N.am   47  ALA47      -0.1963
     42  CA        80.2340   41.7270   24.9250 C.3    47  ALA47       0.1728
     43  C         79.0780   42.0440   24.0010 C.2    47  ALA47       0.2616
     44  O         77.9250   41.9010   24.3880 O.2    47  ALA47      -0.2715
     45  CB        80.7160   42.9980   25.5860 C.3    47  ALA47       0.0334
     46  N         79.3820   42.4690   22.7810 N.am   48  TYR48      -0.1960
     47  CA        78.3390   42.8240   21.8280 C.3    48  TYR48       0.1771
     48  C         77.3630   41.6800   21.6370 C.2    48  TYR48       0.2619
     49  O         76.1730   41.9090   21.4020 O.2    48  TYR48      -0.2715
     50  CB        78.9510   43.2030   20.4780 C.3    48  TYR48       0.0574
     51  CG        78.0950   44.1050   19.6040 C.ar   48  TYR48      -0.0198
     52  CD1       77.7210   45.3780   20.0300 C.ar   48  TYR48      -0.0009
     53  CD2       77.7210   43.7120   18.3280 C.ar   48  TYR48      -0.0009
     54  CE1       77.0060   46.2320   19.2010 C.ar   48  TYR48       0.0417
     55  CE2       77.0090   44.5590   17.4950 C.ar   48  TYR48       0.0417
     56  CZ        76.6580   45.8160   17.9330 C.ar   48  TYR48       0.1957
     57  OH        75.9890   46.6660   17.0810 O.3    48  TYR48      -0.2866
     58  N         77.8660   40.4510   21.7420 N.am   49  GLU49      -0.1977
     59  CA        77.0290   39.2640   21.5680 C.3    49  GLU49       0.1602
     60  C         76.2570   38.8630   22.8200 C.2    49  GLU49       0.2287
     61  O         75.7030   37.7670   22.8720 O.2    49  GLU49      -0.2864
     62  CB        77.8680   38.0620   21.1130 C.3    49  GLU49       0.0415
     63  CG        78.4400   38.1610   19.7160 C.3    49  GLU49       0.1163
     64  CD        79.5130   39.2150   19.5970 C.2    49  GLU49       0.3649
     65  OE1       80.5840   39.0410   20.2140 O.co2  49  GLU49      -0.2457
     66  OE2       79.2830   40.2150   18.8870 O.co2  49  GLU49      -0.2457
     67  N         81.4020   40.7200   31.0490 N.3    70  ALA70      -0.1231
     68  CA        82.3650   41.0580   30.0150 C.3    70  ALA70       0.1694
     69  C         83.2650   42.1920   30.4570 C.2    70  ALA70       0.2592
     70  O         82.9160   42.9940   31.3230 O.2    70  ALA70      -0.2718
     71  CB        81.6420   41.4470   28.7240 C.3    70  ALA70       0.0304
     72  N         84.4380   42.2450   29.8470 N.am   71  PHE71      -0.1962
     73  CA        85.4040   43.2850   30.1370 C.3    71  PHE71       0.1771
     74  C         85.5140   44.0820   28.8430 C.2    71  PHE71       0.2619
     75  O         86.1320   43.6310   27.8720 O.2    71  PHE71      -0.2715
     76  CB        86.7570   42.6640   30.4870 C.3    71  PHE71       0.0574
     77  CG        87.6050   43.5130   31.3910 C.ar   71  PHE71      -0.0200
     78  CD1       88.9960   43.4130   31.3520 C.ar   71  PHE71      -0.0042
     79  CD2       87.0180   44.3680   32.3230 C.ar   71  PHE71      -0.0042
     80  CE1       89.7860   44.1500   32.2350 C.ar   71  PHE71      -0.0003
     81  CE2       87.7970   45.1070   33.2080 C.ar   71  PHE71      -0.0003
     82  CZ        89.1830   44.9980   33.1670 C.ar   71  PHE71      -0.0000
     83  N         84.8880   45.2510   28.8200 N.am   72  VAL72      -0.1963
     84  CA        84.9300   46.0960   27.6370 C.3    72  VAL72       0.1727
     85  C         85.9130   47.2260   27.9100 C.2    72  VAL72       0.2616
     86  O         85.5650   48.2800   28.4580 O.2    72  VAL72      -0.2715
     87  CB        83.5360   46.6380   27.3010 C.3    72  VAL72       0.0290
     88  CG1       83.6040   47.5560   26.1000 C.3    72  VAL72       0.0023
     89  CG2       82.6080   45.4800   27.0190 C.3    72  VAL72       0.0023
     90  N         87.1550   46.9780   27.5140 N.am   73  ILE73      -0.1977
     91  CA        88.2280   47.9190   27.7430 C.3    73  ILE73       0.1596
     92  C         88.7700   48.5910   26.4920 C.2    73  ILE73       0.2287
     93  O         88.7300   48.0340   25.3860 O.2    73  ILE73      -0.2864
     94  CB        89.3980   47.2260   28.4940 C.3    73  ILE73       0.0276
     95  CG1       90.1040   46.2210   27.5870 C.3    73  ILE73       0.0022
     96  CG2       88.8770   46.4940   29.7040 C.3    73  ILE73       0.0022
     97  CD1       91.2920   46.7960   26.8590 C.3    73  ILE73       0.0001
     98  N         91.4940   49.5380   24.2040 N.3    75  GLY75      -0.1225
     99  CA        92.7760   48.9260   23.9040 C.3    75  GLY75       0.1811
    100  C         93.7920   49.8420   23.2510 C.2    75  GLY75       0.2280
    101  O         94.8290   49.3840   22.7720 O.2    75  GLY75      -0.2866
    102  N         86.2090   51.9440   22.5290 N.3    80  HIS80      -0.1241
    103  CA        85.4470   50.8360   23.0990 C.3    80  HIS80       0.1621
    104  C         84.0690   51.2560   23.6000 C.2    80  HIS80       0.2264
    105  O         83.1560   50.4460   23.6920 O.2    80  HIS80      -0.2867
    106  CB        86.2280   50.2600   24.2710 C.3    80  HIS80       0.0745
    107  CG        86.3530   51.2200   25.4060 C.ar   80  HIS80       0.0817
    108  ND1       86.6710   52.5470   25.2130 N.ar   80  HIS80      -0.2268
    109  CD2       86.1400   51.0700   26.7330 C.ar   80  HIS80       0.1154
    110  CE1       86.6430   53.1750   26.3750 C.ar   80  HIS80       0.1986
    111  NE2       86.3240   52.3020   27.3130 N.ar   80  HIS80      -0.2212
    112  N         80.6460   50.2000   21.7070 N.3    83  VAL83      -0.1245
    113  CA        80.1300   48.8700   21.9750 C.3    83  VAL83       0.1561
    114  C         79.6500   48.7890   23.4150 C.2    83  VAL83       0.2260
    115  O         78.5180   48.3850   23.6830 O.2    83  VAL83      -0.2867
    116  CB        81.2070   47.8150   21.7280 C.3    83  VAL83       0.0252
    117  CG1       80.8580   46.5060   22.4240 C.3    83  VAL83       0.0019
    118  CG2       81.3290   47.5870   20.2540 C.3    83  VAL83       0.0019
@<TRIPOS>BOND
     1    57    56    1
     2    55    56   ar
     3    55    53   ar
     4    56    54   ar
     5    53    51   ar
     6    66    64   ar
     7    54    52   ar
     8    64    63    1
     9    64    65   ar
    10    51    52   ar
    11    51    50    1
    12    63    62    1
    13    35    34    1
    14    35    36    1
    15    34    31    1
    16   118   116    1
    17    17    19   ar
    18    17    15   ar
    19    50    47    1
    20    19    18   ar
    21    36    30    1
    22    62    59    1
    23    14    15   ar
    24    14    12   ar
    25    15    13   ar
    26    49    48    2
    27    59    58    1
    28    59    60    1
    29    31    30    1
    30    31    32    1
    31    48    58   am
    32    48    47    1
    33   112   113    1
    34   116   113    1
    35   116   117    1
    36    47    46    1
    37   113   114    1
    38    18    16   ar
    39    37    32   am
    40    37    38    1
    41    32    33    2
    42   102   103    1
    43    12    11   ar
    44    13    16   ar
    45    13    11   ar
    46   101   100    2
    47    46    43   am
    48    60    61    2
    49    38    39    1
    50   103   104    1
    51   103   106    1
    52    40    39    2
    53   100    99    1
    54   114   115    2
    55    39    41   am
    56    11    10    1
    57   104   105    2
    58    99    98    1
    59    43    44    2
    60    43    42    1
    61    41    42    1
    62   106   107    1
    63    42    45    1
    64    10     7    1
    65   108   107   ar
    66   108   110   ar
    67    93    92    2
    68   107   109   ar
    69     7     6    1
    70     7     8    1
    71    88    87    1
    72   110   111   ar
    73    92    91    1
    74     5     2    1
    75   109   111   ar
    76    29    28   ar
    77    29    27   ar
    78     2     3    1
    79     2     1    1
    80    97    95    1
    81     8    20   am
    82     8     9    2
    83     3     4    2
    84    89    87    1
    85    28    26   ar
    86    20    21    1
    87    87    84    1
    88    90    91    1
    89    90    85   am
    90    27    25   ar
    91    95    94    1
    92    84    85    1
    93    84    83    1
    94    91    94    1
    95    75    74    2
    96    26    25   ar
    97    85    86    2
    98    25    24    1
    99    21    24    1
   100    21    22    1
   101    94    96    1
   102    71    68    1
   103    83    74   am
   104    74    73    1
   105    22    23    2
   106    72    73    1
   107    72    69   am
   108    68    69    1
   109    68    67    1
   110    73    76    1
   111    69    70    2
   112    76    77    1
   113    78    77   ar
   114    78    80   ar
   115    77    79   ar
   116    80    82   ar
   117    79    81   ar
   118    82    81   ar
