@<TRIPOS>MOLECULE
tmp/1t16A00.pdb
 206 192 0 0 0
SMALL
GASTEIGER

@<TRIPOS>ATOM
      1  N         24.3380   45.0760   58.9670 N.3     3  PHE3       -0.1241
      2  CA        25.1190   45.0910   57.7400 C.3     3  PHE3        0.1605
      3  C         26.4500   45.8130   57.9870 C.2     3  PHE3        0.2264
      4  O         27.0240   46.4700   57.1120 O.2     3  PHE3       -0.2867
      5  CB        24.3240   45.7430   56.6110 C.3     3  PHE3        0.0534
      6  CG        23.7580   47.0780   56.9590 C.ar    3  PHE3       -0.0203
      7  CD1       24.5610   48.2110   56.9570 C.ar    3  PHE3       -0.0042
      8  CD2       22.4140   47.2060   57.2880 C.ar    3  PHE3       -0.0042
      9  CE1       24.0330   49.4500   57.2720 C.ar    3  PHE3       -0.0003
     10  CE2       21.8770   48.4360   57.6050 C.ar    3  PHE3       -0.0003
     11  CZ        22.6860   49.5640   57.5990 C.ar    3  PHE3       -0.0000
     12  N         26.4110   44.7160   52.5980 N.3   104  LEU104     -0.1245
     13  CA        25.4130   43.6650   52.6440 C.3   104  LEU104      0.1561
     14  C         25.1150   43.2830   51.2100 C.2   104  LEU104      0.2260
     15  O         25.1900   44.1200   50.2970 O.2   104  LEU104     -0.2867
     16  CB        24.1430   44.2010   53.2980 C.3   104  LEU104      0.0270
     17  CG        22.8340   43.4120   53.1680 C.3   104  LEU104      0.0019
     18  CD1       22.7980   42.3100   54.2060 C.3   104  LEU104      0.0001
     19  CD2       21.6390   44.3490   53.3790 C.3   104  LEU104      0.0001
     20  N         19.6260   42.9310   47.3860 N.3   121  THR121     -0.1203
     21  CA        19.9320   44.0140   48.2720 C.3   121  THR121      0.1994
     22  C         21.4360   44.1250   48.3550 C.2   121  THR121      0.2618
     23  O         22.1230   43.2150   48.8130 O.2   121  THR121     -0.2717
     24  CB        19.3130   43.7660   49.6460 C.3   121  THR121      0.1784
     25  OG1       17.9430   43.3880   49.4710 O.3   121  THR121     -0.2211
     26  CG2       19.3590   45.0260   50.4940 C.3   121  THR121      0.0376
     27  N         21.9300   45.2550   47.8660 N.am  122  ASP122     -0.1959
     28  CA        23.3450   45.5520   47.8270 C.3   122  ASP122      0.1840
     29  C         23.6830   46.8740   48.4830 C.2   122  ASP122      0.2621
     30  O         22.9790   47.8650   48.3210 O.2   122  ASP122     -0.2715
     31  CB        23.8070   45.6320   46.3860 C.3   122  ASP122      0.1450
     32  CG        23.7230   44.3220   45.6820 C.2   122  ASP122      0.3671
     33  OD1       22.6710   43.6580   45.8060 O.co2 122  ASP122     -0.2456
     34  OD2       24.7070   43.9680   44.9930 O.co2 122  ASP122     -0.2456
     35  N         24.7880   46.8810   49.2080 N.am  123  LEU123     -0.1977
     36  CA        25.2640   48.0800   49.8490 C.3   123  LEU123      0.1596
     37  C         26.7590   47.9260   49.8980 C.2   123  LEU123      0.2287
     38  O         27.2860   47.1050   50.6480 O.2   123  LEU123     -0.2864
     39  CB        24.7100   48.2280   51.2650 C.3   123  LEU123      0.0297
     40  CG        25.3080   49.4260   52.0250 C.3   123  LEU123      0.0022
     41  CD1       25.1170   50.7050   51.2110 C.3   123  LEU123      0.0001
     42  CD2       24.6750   49.5600   53.3950 C.3   123  LEU123      0.0001
     43  N         24.4050   51.4200   46.3480 N.3   153  ALA153     -0.1231
     44  CA        23.3370   50.5870   46.8820 C.3   153  ALA153      0.1694
     45  C         22.3160   50.2620   45.8200 C.2   153  ALA153      0.2592
     46  O         22.1290   51.0170   44.8710 O.2   153  ALA153     -0.2718
     47  CB        22.6690   51.2810   48.0530 C.3   153  ALA153      0.0304
     48  N         21.6620   49.1200   45.9730 N.am  154  LYS154     -0.1966
     49  CA        20.6500   48.7010   45.0110 C.3   154  LYS154      0.1728
     50  C         19.6450   47.7900   45.6840 C.2   154  LYS154      0.2616
     51  O         20.0140   46.8340   46.3530 O.2   154  LYS154     -0.2715
     52  CB        21.3000   47.9860   43.8280 C.3   154  LYS154      0.0311
     53  CG        20.3270   47.5150   42.7640 C.3   154  LYS154      0.0038
     54  CD        21.0780   46.9100   41.5780 C.3   154  LYS154      0.0206
     55  CE        20.1300   46.3380   40.5430 C.3   154  LYS154      0.1093
     56  NZ        20.8210   46.0360   39.2550 N.3   154  LYS154     -0.1314
     57  N         18.3710   48.1180   45.5310 N.am  155  ILE155     -0.1977
     58  CA        17.3060   47.3220   46.1150 C.3   155  ILE155      0.1596
     59  C         16.3530   46.9070   45.0280 C.2   155  ILE155      0.2287
     60  O         15.9040   47.7360   44.2370 O.2   155  ILE155     -0.2864
     61  CB        16.5000   48.1080   47.1670 C.3   155  ILE155      0.0276
     62  CG1       17.3730   48.4180   48.3790 C.3   155  ILE155      0.0022
     63  CG2       15.3130   47.3070   47.6070 C.3   155  ILE155      0.0022
     64  CD1       16.6290   49.1440   49.4830 C.3   155  ILE155      0.0001
     65  N         12.9250   44.2760   44.4050 N.3   157  ARG157     -0.1245
     66  CA        11.8940   43.4240   44.9570 C.3   157  ARG157      0.1563
     67  C         10.9740   42.9730   43.8500 C.2   157  ARG157      0.2260
     68  O         10.8040   43.6820   42.8630 O.2   157  ARG157     -0.2867
     69  CB        11.1000   44.1930   46.0090 C.3   157  ARG157      0.0307
     70  CG        11.9100   44.5840   47.2030 C.3   157  ARG157      0.0489
     71  CD        12.4960   43.3560   47.8660 C.3   157  ARG157      0.2205
     72  NE        13.9260   43.5130   48.1650 N.pl3 157  ARG157     -0.0865
     73  CZ        14.4120   43.9620   49.3200 C.cat 157  ARG157      0.5346
     74  NH1       13.5940   44.3110   50.3040 N.pl3 157  ARG157      0.1354
     75  NH2       15.7180   44.0320   49.5020 N.pl3 157  ARG157      0.1354
     76  N         15.5610   50.4050   43.1990 N.3   200  LEU200     -0.1231
     77  CA        16.2120   51.5800   43.7720 C.3   200  LEU200      0.1693
     78  C         17.7090   51.3880   43.6220 C.2   200  LEU200      0.2592
     79  O         18.2450   50.4000   44.1180 O.2   200  LEU200     -0.2718
     80  CB        15.9230   51.7120   45.2680 C.3   200  LEU200      0.0284
     81  CG        14.5160   51.9550   45.8010 C.3   200  LEU200      0.0019
     82  CD1       13.6130   50.8040   45.4480 C.3   200  LEU200      0.0001
     83  CD2       14.5810   52.1320   47.3130 C.3   200  LEU200      0.0001
     84  N         18.3830   52.3110   42.9420 N.am  201  ASN201     -0.1960
     85  CA        19.8300   52.2150   42.7900 C.3   201  ASN201      0.1823
     86  C         20.4100   53.6090   42.8660 C.2   201  ASN201      0.2660
     87  O         19.7320   54.5820   42.5410 O.2   201  ASN201     -0.2711
     88  CB        20.2180   51.5540   41.4610 C.3   201  ASN201      0.1195
     89  CG        20.1090   52.4930   40.2770 C.2   201  ASN201      0.2630
     90  OD1       19.0120   52.8010   39.8090 O.2   201  ASN201     -0.2716
     91  ND2       21.2530   52.9570   39.7840 N.am  201  ASN201     -0.0877
     92  N         21.6570   53.7050   43.3160 N.am  202  GLY202     -0.1730
     93  CA        22.3030   55.0010   43.4270 C.2   202  GLY202      0.1340
     94  C         23.5650   55.0340   44.2700 C.2   202  GLY202      0.2521
     95  O         23.7020   54.3030   45.2590 O.2   202  GLY202     -0.2816
     96  N         20.8330   59.6540   49.2580 N.3   235  PHE235     -0.1241
     97  CA        21.0030   59.2540   47.8740 C.3   235  PHE235      0.1605
     98  C         20.0860   60.0290   46.9440 C.2   235  PHE235      0.2264
     99  O         18.9730   60.4190   47.3080 O.2   235  PHE235     -0.2867
    100  CB        20.7170   57.7630   47.6970 C.3   235  PHE235      0.0534
    101  CG        21.6900   56.8600   48.3990 C.ar  235  PHE235     -0.0203
    102  CD1       21.5970   56.6380   49.7740 C.ar  235  PHE235     -0.0042
    103  CD2       22.6820   56.1970   47.6700 C.ar  235  PHE235     -0.0042
    104  CE1       22.4710   55.7650   50.4190 C.ar  235  PHE235     -0.0003
    105  CE2       23.5650   55.3190   48.3020 C.ar  235  PHE235     -0.0003
    106  CZ        23.4590   55.1000   49.6870 C.ar  235  PHE235     -0.0000
    107  N         18.9560   58.8610   43.8100 N.3   237  GLY237     -0.1210
    108  CA        18.8920   57.7990   42.8280 C.3   237  GLY237      0.1956
    109  C         17.6970   57.7170   41.9110 C.2   237  GLY237      0.2611
    110  O         16.8920   58.6400   41.8200 O.2   237  GLY237     -0.2717
    111  N         17.6060   56.5890   41.2140 N.am  238  ASN238     -0.1974
    112  CA        16.5190   56.3330   40.2910 C.3   238  ASN238      0.1688
    113  C         15.5470   55.3410   40.9100 C.2   238  ASN238      0.2292
    114  O         15.9550   54.3370   41.4970 O.2   238  ASN238     -0.2864
    115  CB        17.0400   55.7250   38.9900 C.3   238  ASN238      0.1181
    116  CG        18.2940   56.3820   38.5010 C.2   238  ASN238      0.2629
    117  OD1       19.3260   56.3390   39.1700 O.2   238  ASN238     -0.2716
    118  ND2       18.2230   56.9960   37.3210 N.am  238  ASN238     -0.0877
    119  N         14.1820   59.2690   42.7260 N.3   265  GLY265     -0.1225
    120  CA        13.9800   59.0570   44.1520 C.3   265  GLY265      0.1811
    121  C         15.0540   59.6200   45.0590 C.2   265  GLY265      0.2280
    122  O         16.1850   59.8680   44.6240 O.2   265  GLY265     -0.2866
    123  N         16.5030   59.0710   49.1540 N.3   267  LEU267     -0.1245
    124  CA        16.4440   58.2880   50.3820 C.3   267  LEU267      0.1561
    125  C         17.6660   58.5900   51.2210 C.2   267  LEU267      0.2260
    126  O         18.7580   58.8340   50.6980 O.2   267  LEU267     -0.2867
    127  CB        16.3720   56.7850   50.0620 C.3   267  LEU267      0.0270
    128  CG        16.3910   55.7560   51.2040 C.3   267  LEU267      0.0019
    129  CD1       15.7870   54.4430   50.7150 C.3   267  LEU267      0.0001
    130  CD2       17.8190   55.5340   51.6980 C.3   267  LEU267      0.0001
    131  N         20.1560   57.1730   54.0950 N.3   269  LEU269     -0.1245
    132  CA        20.6570   55.9570   54.7350 C.3   269  LEU269      0.1561
    133  C         21.4770   56.3850   55.9320 C.2   269  LEU269      0.2260
    134  O         22.4070   57.1930   55.7960 O.2   269  LEU269     -0.2867
    135  CB        21.5270   55.1510   53.7660 C.3   269  LEU269      0.0270
    136  CG        22.4170   54.0530   54.3740 C.3   269  LEU269      0.0019
    137  CD1       21.6340   53.1230   55.3090 C.3   269  LEU269      0.0001
    138  CD2       23.0350   53.2690   53.2280 C.3   269  LEU269      0.0001
    139  N         19.2070   53.7520   62.8060 N.3   301  PHE301     -0.1241
    140  CA        18.7140   53.0730   61.6160 C.3   301  PHE301      0.1605
    141  C         17.3010   52.6060   61.9720 C.2   301  PHE301      0.2264
    142  O         17.1080   51.5970   62.6740 O.2   301  PHE301     -0.2867
    143  CB        19.6090   51.8720   61.2710 C.3   301  PHE301      0.0534
    144  CG        19.2940   51.2480   59.9380 C.ar  301  PHE301     -0.0203
    145  CD1       19.2340   52.0320   58.7870 C.ar  301  PHE301     -0.0042
    146  CD2       19.0370   49.8880   59.8350 C.ar  301  PHE301     -0.0042
    147  CE1       18.9190   51.4650   57.5540 C.ar  301  PHE301     -0.0003
    148  CE2       18.7220   49.3110   58.6080 C.ar  301  PHE301     -0.0003
    149  CZ        18.6620   50.0990   57.4650 C.ar  301  PHE301     -0.0000
    150  N         13.9450   52.7900   55.7460 N.3   304  LEU304     -0.1245
    151  CA        14.4240   53.2650   54.4530 C.3   304  LEU304      0.1561
    152  C         13.2490   53.8170   53.6580 C.2   304  LEU304      0.2260
    153  O         12.3170   53.0850   53.3220 O.2   304  LEU304     -0.2867
    154  CB        15.1030   52.1370   53.6680 C.3   304  LEU304      0.0270
    155  CG        16.3840   51.5720   54.2800 C.3   304  LEU304      0.0019
    156  CD1       16.0290   50.6090   55.4050 C.3   304  LEU304      0.0001
    157  CD2       17.1840   50.8500   53.2180 C.3   304  LEU304      0.0001
    158  N          8.7670   54.3840   47.9740 N.3   315  PHE315     -0.1241
    159  CA         9.0700   53.1500   48.6820 C.3   315  PHE315      0.1605
    160  C          9.2900   53.4760   50.1510 C.2   315  PHE315      0.2264
    161  O          9.6600   54.5940   50.4920 O.2   315  PHE315     -0.2867
    162  CB        10.3400   52.5170   48.0910 C.3   315  PHE315      0.0534
    163  CG        10.7250   51.2070   48.7230 C.ar  315  PHE315     -0.0203
    164  CD1       10.1720   50.0170   48.2780 C.ar  315  PHE315     -0.0042
    165  CD2       11.6340   51.1680   49.7730 C.ar  315  PHE315     -0.0042
    166  CE1       10.5190   48.8020   48.8700 C.ar  315  PHE315     -0.0003
    167  CE2       11.9880   49.9650   50.3720 C.ar  315  PHE315     -0.0003
    168  CZ        11.4310   48.7790   49.9220 C.ar  315  PHE315     -0.0000
    169  N         10.1290   51.2500   54.1620 N.3   317  LYS317     -0.1245
    170  CA        10.2270   50.0080   54.9070 C.3   317  LYS317      0.1561
    171  C         10.7130   50.3060   56.3050 C.2   317  LYS317      0.2260
    172  O         11.7150   50.9950   56.4840 O.2   317  LYS317     -0.2867
    173  CB        11.2060   49.0590   54.2140 C.3   317  LYS317      0.0271
    174  CG        11.1400   47.6030   54.6830 C.3   317  LYS317      0.0035
    175  CD        11.5650   47.4290   56.1290 C.3   317  LYS317      0.0206
    176  CE        11.5050   45.9760   56.5350 C.3   317  LYS317      0.1093
    177  NZ        12.4460   45.1600   55.7170 N.3   317  LYS317     -0.1314
    178  N         12.5110   49.3790   59.6480 N.3   319  GLU319     -0.1245
    179  CA        13.5810   48.4860   60.1060 C.3   319  GLU319      0.1567
    180  C         13.5380   48.3380   61.6290 C.2   319  GLU319      0.2260
    181  O         13.5700   47.2250   62.1510 O.2   319  GLU319     -0.2867
    182  CB        14.9450   49.0370   59.6810 C.3   319  GLU319      0.0388
    183  CG        15.0850   49.2330   58.1830 C.3   319  GLU319      0.1160
    184  CD        15.1240   47.9120   57.4090 C.2   319  GLU319      0.3649
    185  OE1       15.1510   47.9790   56.1640 O.co2 319  GLU319     -0.2457
    186  OE2       15.1360   46.8190   58.0310 O.co2 319  GLU319     -0.2457
    187  N         14.0210   40.4960   58.7570 N.3   358  SER358     -0.1217
    188  CA        13.6100   40.3370   57.3690 C.3   358  SER358      0.1889
    189  C         14.5340   39.3010   56.7520 C.2   358  SER358      0.2288
    190  O         15.5720   38.9770   57.3250 O.2   358  SER358     -0.2866
    191  CB        13.6740   41.6650   56.5980 C.3   358  SER358      0.2089
    192  OG        14.9670   42.2330   56.6050 O.3   358  SER358     -0.2183
    193  N         15.7630   39.7640   53.8940 N.3   360  SER360     -0.1202
    194  CA        16.6240   40.6490   53.1240 C.3   360  SER360      0.2020
    195  C         17.9130   40.9540   53.8740 C.2   360  SER360      0.2618
    196  O         18.9680   41.1580   53.2730 O.2   360  SER360     -0.2717
    197  CB        15.8870   41.9490   52.8460 C.3   360  SER360      0.2103
    198  OG        16.7470   42.8760   52.2250 O.3   360  SER360     -0.2182
    199  N         17.8110   41.0060   55.1960 N.am  361  ILE361     -0.1979
    200  CA        18.9520   41.2590   56.0590 C.3   361  ILE361      0.1595
    201  C         18.9520   40.0930   57.0070 C.2   361  ILE361      0.2287
    202  O         18.5220   40.2130   58.1470 O.2   361  ILE361     -0.2864
    203  CB        18.7930   42.5450   56.8960 C.3   361  ILE361      0.0276
    204  CG1       18.5850   43.7500   55.9820 C.3   361  ILE361      0.0022
    205  CG2       20.0340   42.7460   57.7680 C.3   361  ILE361      0.0022
    206  CD1       18.4600   45.0450   56.7330 C.3   361  ILE361      0.0001
@<TRIPOS>BOND
     1   118   116   am
     2   116   115    1
     3   116   117    2
     4   115   112    1
     5    56    55    1
     6    91    89   am
     7    90    89    2
     8    89    88    1
     9   112   113    1
    10   112   111    1
    11    55    54    1
    12   113   114    2
    13   111   109   am
    14    88    85    1
    15    54    53    1
    16   110   109    2
    17   109   108    1
    18    87    86    2
    19   119   120    1
    20    53    52    1
    21    85    86    1
    22    85    84    1
    23   108   107    1
    24    68    67    2
    25    86    92    1
    26    84    78   am
    27    76    77    1
    28    92    93    2
    29    93    94    1
    30    78    77    1
    31    78    79    2
    32    77    80    1
    33    52    49    1
    34    67    66    1
    35   120   121    1
    36    60    59    2
    37    94    95    2
    38    65    66    1
    39   122   121    2
    40    46    45    2
    41    66    69    1
    42    34    32   ar
    43    49    50    1
    44    49    48    1
    45    59    58    1
    46    80    81    1
    47    82    81    1
    48    57    50   am
    49    57    58    1
    50    32    33   ar
    51    32    31    1
    52    50    51    2
    53    81    83    1
    54    45    48   am
    55    45    44    1
    56    69    70    1
    57    58    61    1
    58    43    44    1
    59    31    28    1
    60    44    47    1
    61    98    99    2
    62    98    97    1
    63    61    63    1
    64    61    62    1
    65    70    71    1
    66    20    21    1
    67   103   105   ar
    68   103   101   ar
    69   100    97    1
    70   100   101    1
    71    28    27    1
    72    28    29    1
    73    71    72    1
    74    27    22   am
    75    97    96    1
    76   158   159    1
    77   162   159    1
    78   162   163    1
    79    72    73    2
    80    21    22    1
    81    21    24    1
    82   164   163   ar
    83   164   166   ar
    84   105   106   ar
    85    30    29    2
    86    22    23    2
    87    62    64    1
    88   101   102   ar
    89    29    35   am
    90   159   160    1
    91   163   165   ar
    92   166   168   ar
    93   123   124    1
    94    35    36    1
    95    73    75    1
    96    73    74    1
    97    25    24    1
    98    24    26    1
    99   106   104   ar
   100   165   167   ar
   101   102   104   ar
   102    36    37    1
   103    36    39    1
   104    37    38    2
   105   168   167   ar
   106   127   124    1
   107   127   128    1
   108   160   161    2
   109    15    14    2
   110   124   125    1
   111   126   125    2
   112   129   128    1
   113   128   130    1
   114    14    13    1
   115    41    40    1
   116    39    40    1
   117    40    42    1
   118   198   197    1
   119    12    13    1
   120    13    16    1
   121   197   194    1
   122   194   195    1
   123   194   193    1
   124    17    16    1
   125    17    19    1
   126    17    18    1
   127   157   155    1
   128   138   136    1
   129   196   195    2
   130   153   152    2
   131   152   151    1
   132   154   155    1
   133   154   151    1
   134   135   136    1
   135   135   132    1
   136   195   199   am
   137   131   132    1
   138   169   170    1
   139   173   174    1
   140   173   170    1
   141   155   156    1
   142   136   137    1
   143   151   150    1
   144   174   175    1
   145   132   133    1
   146   170   171    1
   147   199   200    1
   148   177   176    1
   149   134   133    2
   150   204   206    1
   151   204   203    1
   152   200   203    1
   153   200   201    1
   154   175   176    1
   155   185   184   ar
   156   171   172    2
   157   191   192    1
   158   191   188    1
   159     5     6    1
   160     5     2    1
   161   189   190    2
   162   189   188    1
   163   203   205    1
   164     7     6   ar
   165     7     9   ar
   166     6     8   ar
   167   201   202    2
   168     4     3    2
   169     9    11   ar
   170     8    10   ar
   171   188   187    1
   172   184   186   ar
   173   184   183    1
   174   149   147   ar
   175   149   148   ar
   176   147   145   ar
   177    11    10   ar
   178     2     3    1
   179     2     1    1
   180   183   182    1
   181   148   146   ar
   182   145   144   ar
   183   178   179    1
   184   182   179    1
   185   146   144   ar
   186   144   143    1
   187   179   180    1
   188   143   140    1
   189   140   141    1
   190   140   139    1
   191   180   181    2
   192   141   142    2
