@<TRIPOS>MOLECULE
tmp/1t16A01.pdb
 196 188 0 0 0
SMALL
GASTEIGER

@<TRIPOS>ATOM
      1  N         30.4810   45.5940   59.1580 N.3     5  LEU5       -0.1245
      2  CA        31.5860   44.6680   59.0070 C.3     5  LEU5        0.1561
      3  C         32.8430   45.3300   59.5310 C.2     5  LEU5        0.2260
      4  O         33.0360   46.5430   59.3680 O.2     5  LEU5       -0.2867
      5  CB        31.7590   44.2590   57.5420 C.3     5  LEU5        0.0270
      6  CG        31.1200   45.1260   56.4600 C.3     5  LEU5        0.0019
      7  CD1       32.1390   46.0510   55.9060 C.3     5  LEU5        0.0001
      8  CD2       30.5650   44.2460   55.3570 C.3     5  LEU5        0.0001
      9  N         35.2060   37.0100   52.0730 N.3    52  ILE52      -0.1245
     10  CA        34.1710   36.5060   52.9650 C.3    52  ILE52       0.1561
     11  C         33.2870   35.5310   52.2100 C.2    52  ILE52       0.2260
     12  O         32.8460   35.8200   51.0960 O.2    52  ILE52      -0.2867
     13  CB        33.3120   37.6160   53.5050 C.3    52  ILE52       0.0252
     14  CG1       34.1870   38.6240   54.2490 C.3    52  ILE52       0.0019
     15  CG2       32.2710   37.0370   54.4380 C.3    52  ILE52       0.0019
     16  CD1       33.3930   39.6480   55.0020 C.3    52  ILE52       0.0001
     17  N         29.9110   33.4670   52.8370 N.3    54  PRO54      -0.2116
     18  CA        28.7930   33.1210   53.7110 C.3    54  PRO54       0.1372
     19  C         28.0050   31.9090   53.2600 C.2    54  PRO54       0.2244
     20  O         28.0550   31.5140   52.0910 O.2    54  PRO54      -0.2868
     21  CB        27.9310   34.3870   53.6870 C.3    54  PRO54       0.0268
     22  CG        28.8900   35.4630   53.2400 C.3    54  PRO54       0.0207
     23  CD        29.6660   34.7600   52.1860 C.3    54  PRO54       0.0892
     24  N         24.3120   31.3440   54.1030 N.3    56  VAL56      -0.1245
     25  CA        23.0370   31.6530   54.7300 C.3    56  VAL56       0.1561
     26  C         21.9420   30.9580   53.9040 C.2    56  VAL56       0.2260
     27  O         21.9340   31.0300   52.6660 O.2    56  VAL56      -0.2867
     28  CB        22.8040   33.1730   54.7620 C.3    56  VAL56       0.0252
     29  CG1       21.5250   33.5010   55.5110 C.3    56  VAL56       0.0019
     30  CG2       23.9920   33.8530   55.4190 C.3    56  VAL56       0.0019
     31  N         23.5330   34.6790   50.4760 N.3    74  ALA74      -0.1231
     32  CA        24.5550   35.6900   50.7230 C.3    74  ALA74       0.1679
     33  C         25.7650   35.3350   49.8760 C.2    74  ALA74       0.2434
     34  O         26.4520   34.3430   50.1300 O.2    74  ALA74      -0.2733
     35  CB        24.9300   35.7510   52.2070 C.3    74  ALA74       0.0304
     36  N         26.0200   36.1360   48.8320 N.am   75  PRO75      -0.2729
     37  CA        27.1450   35.9430   47.9080 C.3    75  PRO75       0.1401
     38  C         28.4760   36.2300   48.5980 C.2    75  PRO75       0.2269
     39  O         28.5120   36.8670   49.6530 O.2    75  PRO75      -0.2865
     40  CB        26.8630   36.9620   46.7880 C.3    75  PRO75       0.0296
     41  CG        25.3820   37.2700   46.9220 C.3    75  PRO75       0.0237
     42  CD        25.2010   37.2880   48.4140 C.3    75  PRO75       0.0939
     43  N         32.1890   37.9670   49.0960 N.3    77  ALA77      -0.1245
     44  CA        32.6700   39.3230   48.9140 C.3    77  ALA77       0.1562
     45  C         34.1570   39.4170   49.1930 C.2    77  ALA77       0.2260
     46  O         34.7220   38.5870   49.9090 O.2    77  ALA77      -0.2867
     47  CB        31.9170   40.2550   49.8310 C.3    77  ALA77       0.0290
     48  N         36.6750   42.2110   50.5940 N.3    79  VAL79      -0.1245
     49  CA        36.7840   43.4990   51.2520 C.3    79  VAL79       0.1561
     50  C         38.2490   43.8640   51.3590 C.2    79  VAL79       0.2260
     51  O         38.9920   43.3190   52.1680 O.2    79  VAL79      -0.2867
     52  CB        36.1630   43.4370   52.6390 C.3    79  VAL79       0.0252
     53  CG1       36.2240   44.8020   53.3120 C.3    79  VAL79       0.0019
     54  CG2       34.7170   42.9470   52.5120 C.3    79  VAL79       0.0019
     55  N         36.2690   49.4460   54.9600 N.3   100  SER100     -0.1217
     56  CA        34.8370   49.3360   54.7390 C.3   100  SER100      0.1889
     57  C         34.2030   48.8920   56.0260 C.2   100  SER100      0.2288
     58  O         34.5710   47.8600   56.5840 O.2   100  SER100     -0.2866
     59  CB        34.5180   48.3310   53.6530 C.3   100  SER100      0.2089
     60  OG        33.1160   48.2850   53.4590 O.3   100  SER100     -0.2183
     61  N         30.5850   49.0700   56.3850 N.3   102  TYR102     -0.1227
     62  CA        29.2180   48.6360   56.1370 C.3   102  TYR102      0.1736
     63  C         29.0200   48.0470   54.7590 C.2   102  TYR102      0.2596
     64  O         29.4910   48.5820   53.7530 O.2   102  TYR102     -0.2718
     65  CB        28.2260   49.7990   56.3260 C.3   102  TYR102      0.0548
     66  CG        28.1520   50.3250   57.7440 C.ar  102  TYR102     -0.0200
     67  CD1       28.6540   51.5920   58.0670 C.ar  102  TYR102     -0.0009
     68  CD2       27.6350   49.5340   58.7760 C.ar  102  TYR102     -0.0009
     69  CE1       28.6460   52.0570   59.3850 C.ar  102  TYR102      0.0417
     70  CE2       27.6250   49.9820   60.0980 C.ar  102  TYR102      0.0417
     71  CZ        28.1330   51.2470   60.3980 C.ar  102  TYR102      0.1957
     72  OH        28.1300   51.6960   61.7050 O.3   102  TYR102     -0.2866
     73  N         28.2990   46.9360   54.7290 N.am  103  GLY103     -0.1942
     74  CA        28.0200   46.2700   53.4770 C.3   103  GLY103      0.2014
     75  C         27.0230   45.1520   53.6880 C.2   103  GLY103      0.2639
     76  O         26.8280   44.6690   54.8080 O.2   103  GLY103     -0.2714
     77  N         26.4110   44.7160   52.5980 N.am  104  LEU104     -0.1963
     78  CA        25.4130   43.6650   52.6440 C.3   104  LEU104      0.1728
     79  C         25.1150   43.2830   51.2100 C.2   104  LEU104      0.2616
     80  O         25.1900   44.1200   50.2970 O.2   104  LEU104     -0.2715
     81  CB        24.1430   44.2010   53.2980 C.3   104  LEU104      0.0311
     82  CG        22.8340   43.4120   53.1680 C.3   104  LEU104      0.0022
     83  CD1       22.7980   42.3100   54.2060 C.3   104  LEU104      0.0001
     84  CD2       21.6390   44.3490   53.3790 C.3   104  LEU104      0.0001
     85  N         24.7820   42.0130   51.0110 N.am  105  ALA105     -0.1977
     86  CA        24.4430   41.5080   49.6900 C.3   105  ALA105      0.1597
     87  C         23.5960   40.2480   49.8440 C.2   105  ALA105      0.2287
     88  O         24.1140   39.1740   50.1410 O.2   105  ALA105     -0.2864
     89  CB        25.7070   41.2130   48.9020 C.3   105  ALA105      0.0319
     90  N         24.7880   46.8810   49.2080 N.3   123  LEU123     -0.1231
     91  CA        25.2640   48.0800   49.8490 C.3   123  LEU123      0.1693
     92  C         26.7590   47.9260   49.8980 C.2   123  LEU123      0.2592
     93  O         27.2860   47.1050   50.6480 O.2   123  LEU123     -0.2718
     94  CB        24.7100   48.2280   51.2650 C.3   123  LEU123      0.0284
     95  CG        25.3080   49.4260   52.0250 C.3   123  LEU123      0.0019
     96  CD1       25.1170   50.7050   51.2110 C.3   123  LEU123      0.0001
     97  CD2       24.6750   49.5600   53.3950 C.3   123  LEU123      0.0001
     98  N         27.4400   48.6890   49.0550 N.am  124  GLU124     -0.1966
     99  CA        28.8950   48.6790   49.0110 C.3   124  GLU124      0.1733
    100  C         29.3570   49.9490   49.7300 C.2   124  GLU124      0.2617
    101  O         28.8280   51.0330   49.4990 O.2   124  GLU124     -0.2715
    102  CB        29.3700   48.6800   47.5580 C.3   124  GLU124      0.0429
    103  CG        28.7980   47.5390   46.7290 C.3   124  GLU124      0.1163
    104  CD        29.0480   47.6980   45.2340 C.2   124  GLU124      0.3649
    105  OE1       30.2290   47.8230   44.8320 O.co2 124  GLU124     -0.2457
    106  OE2       28.0600   47.6940   44.4610 O.co2 124  GLU124     -0.2457
    107  N         30.3290   49.8080   50.6190 N.am  125  THR125     -0.1951
    108  CA        30.8420   50.9480   51.3620 C.3   125  THR125      0.1897
    109  C         32.3570   51.0260   51.4230 C.2   125  THR125      0.2313
    110  O         33.0140   50.1170   51.9180 O.2   125  THR125     -0.2863
    111  CB        30.3210   50.9350   52.7880 C.3   125  THR125      0.1794
    112  OG1       29.0110   51.4970   52.7990 O.3   125  THR125     -0.2208
    113  CG2       31.2360   51.7240   53.7170 C.3   125  THR125      0.0378
    114  N         19.3980   38.9290   56.5300 N.3   362  PRO362     -0.2102
    115  CA        19.4420   37.7300   57.3650 C.3   362  PRO362      0.1504
    116  C         20.4280   37.9980   58.4730 C.2   362  PRO362      0.2576
    117  O         21.6290   37.8620   58.2780 O.2   362  PRO362     -0.2718
    118  CB        19.9510   36.6580   56.4060 C.3   362  PRO362      0.0282
    119  CG        19.5230   37.1580   55.0610 C.3   362  PRO362      0.0208
    120  CD        19.8360   38.6270   55.1600 C.3   362  PRO362      0.0893
    121  N         19.9340   38.3940   59.6340 N.am  363  ASP363     -0.1960
    122  CA        20.8420   38.6820   60.7190 C.3   363  ASP363      0.1840
    123  C         20.4720   37.9910   62.0120 C.2   363  ASP363      0.2622
    124  O         19.3060   37.9200   62.3870 O.2   363  ASP363     -0.2715
    125  CB        20.9300   40.1890   60.9380 C.3   363  ASP363      0.1450
    126  CG        22.0520   40.5690   61.8760 C.2   363  ASP363      0.3671
    127  OD1       23.1900   40.1080   61.6480 O.co2 363  ASP363     -0.2456
    128  OD2       21.8010   41.3280   62.8350 O.co2 363  ASP363     -0.2456
    129  N         21.4940   37.4880   62.6870 N.am  364  GLN364     -0.1963
    130  CA        21.3300   36.7950   63.9520 C.3   364  GLN364      0.1733
    131  C         22.5710   37.0650   64.7910 C.2   364  GLN364      0.2616
    132  O         23.4900   37.7500   64.3450 O.2   364  GLN364     -0.2715
    133  CB        21.2030   35.2990   63.7020 C.3   364  GLN364      0.0408
    134  CG        22.3890   34.7360   62.9480 C.3   364  GLN364      0.0908
    135  CD        22.1600   33.3270   62.4600 C.2   364  GLN364      0.2608
    136  OE1       21.1790   33.0440   61.7690 O.2   364  GLN364     -0.2717
    137  NE2       23.0710   32.4310   62.8070 N.am  364  GLN364     -0.0878
    138  N         22.5950   36.5340   66.0070 N.am  365  ASP365     -0.1957
    139  CA        23.7500   36.7140   66.8640 C.3   365  ASP365      0.1840
    140  C         24.8660   35.8860   66.2450 C.2   365  ASP365      0.2621
    141  O         24.6180   34.8010   65.7210 O.2   365  ASP365     -0.2715
    142  CB        23.4450   36.2430   68.2910 C.3   365  ASP365      0.1450
    143  CG        22.4680   37.1650   69.0080 C.2   365  ASP365      0.3671
    144  OD1       22.4270   38.3640   68.6480 O.co2 365  ASP365     -0.2456
    145  OD2       21.7590   36.7030   69.9320 O.co2 365  ASP365     -0.2456
    146  N         26.0900   36.4040   66.2880 N.am  366  ARG366     -0.1977
    147  CA        27.2200   35.6980   65.7000 C.3   366  ARG366      0.1597
    148  C         28.3060   35.3790   66.7120 C.2   366  ARG366      0.2287
    149  O         28.5850   36.1700   67.6130 O.2   366  ARG366     -0.2864
    150  CB        27.8330   36.5290   64.5760 C.3   366  ARG366      0.0334
    151  CG        26.8330   37.2230   63.6810 C.3   366  ARG366      0.0492
    152  CD        27.5580   38.0840   62.6530 C.3   366  ARG366      0.2205
    153  NE        26.6650   39.0270   61.9920 N.pl3 366  ARG366     -0.0865
    154  CZ        27.0740   39.9390   61.1180 C.cat 366  ARG366      0.5346
    155  NH1       28.3620   40.0120   60.8110 N.pl3 366  ARG366      0.1354
    156  NH2       26.2060   40.7810   60.5660 N.pl3 366  ARG366      0.1354
    157  N         32.2760   31.8790   61.4310 N.3   390  MET390     -0.1230
    158  CA        31.1210   32.4940   62.0820 C.3   390  MET390      0.1702
    159  C         29.8390   31.6730   61.9820 C.2   390  MET390      0.2592
    160  O         29.1780   31.6860   60.9470 O.2   390  MET390     -0.2718
    161  CB        30.8280   33.8730   61.4770 C.3   390  MET390      0.0401
    162  CG        31.7310   34.9970   61.9280 C.3   390  MET390      0.0596
    163  SD        31.1400   36.5810   61.2880 S.3   390  MET390     -0.1393
    164  CE        32.2320   36.8220   59.9290 C.3   390  MET390      0.0692
    165  N         29.4780   30.9660   63.0460 N.am  391  HIS391     -0.1962
    166  CA        28.2380   30.2050   63.0310 C.3   391  HIS391      0.1787
    167  C         27.2740   30.9600   63.9340 C.2   391  HIS391      0.2620
    168  O         27.6850   31.8230   64.7080 O.2   391  HIS391     -0.2715
    169  CB        28.4420   28.7770   63.5490 C.3   391  HIS391      0.0785
    170  CG        28.1870   28.6170   65.0160 C.ar  391  HIS391      0.0821
    171  ND1       29.0240   29.1370   65.9800 N.ar  391  HIS391     -0.2267
    172  CD2       27.1840   27.9970   65.6830 C.ar  391  HIS391      0.1154
    173  CE1       28.5500   28.8420   67.1780 C.ar  391  HIS391      0.1986
    174  NE2       27.4340   28.1510   67.0260 N.ar  391  HIS391     -0.2212
    175  N         25.9900   30.6480   63.8360 N.am  392  GLY392     -0.1954
    176  CA        25.0340   31.3460   64.6670 C.3   392  GLY392      0.1869
    177  C         23.7840   30.5520   64.9660 C.2   392  GLY392      0.2309
    178  O         23.6820   29.3700   64.6280 O.2   392  GLY392     -0.2863
    179  N         22.5210   30.4510   59.2180 N.3   408  GLY408     -0.1210
    180  CA        23.6880   30.9340   58.5060 C.3   408  GLY408      0.1956
    181  C         25.0300   30.8880   59.2060 C.2   408  GLY408      0.2612
    182  O         25.1750   31.2560   60.3720 O.2   408  GLY408     -0.2717
    183  N         26.0250   30.4350   58.4560 N.am  409  LYS409     -0.1965
    184  CA        27.3910   30.3330   58.9240 C.3   409  LYS409      0.1728
    185  C         28.2430   31.1160   57.9080 C.2   409  LYS409      0.2616
    186  O         27.7030   31.6150   56.9100 O.2   409  LYS409     -0.2715
    187  CB        27.7930   28.8630   58.9670 C.3   409  LYS409      0.0311
    188  CG        27.8340   28.1980   57.6000 C.3   409  LYS409      0.0038
    189  CD        27.5610   26.6920   57.6820 C.3   409  LYS409      0.0206
    190  CE        26.0910   26.4160   58.0050 C.3   409  LYS409      0.1093
    191  NZ        25.1570   27.0370   57.0080 N.3   409  LYS409     -0.1314
    192  N         29.5490   31.2460   58.1620 N.am  410  ALA410     -0.1977
    193  CA        30.4430   31.9630   57.2480 C.3   410  ALA410      0.1597
    194  C         31.9270   31.6710   57.4670 C.2   410  ALA410      0.2287
    195  O         32.3950   31.5200   58.5960 O.2   410  ALA410     -0.2864
    196  CB        30.2020   33.4690   57.3390 C.3   410  ALA410      0.0319
@<TRIPOS>BOND
     1   106   104   ar
     2   105   104   ar
     3   104   103    1
     4   103   102    1
     5    40    41    1
     6    40    37    1
     7    41    42    1
     8   102    99    1
     9    37    38    1
    10    37    36    1
    11    42    36    1
    12    38    39    2
    13    36    33   am
    14    89    86    1
    15    44    43    1
    16    44    45    1
    17    44    47    1
    18    99    98    1
    19    99   100    1
    20    98    92   am
    21    45    46    2
    22    90    91    1
    23   101   100    2
    24    86    87    1
    25    86    85    1
    26   100   107   am
    27    87    88    2
    28    91    92    1
    29    91    94    1
    30    33    34    2
    31    33    32    1
    32    92    93    2
    33    80    79    2
    34    31    32    1
    35    48    49    1
    36   107   108    1
    37    32    35    1
    38    85    79   am
    39    12    11    2
    40    79    78    1
    41    96    95    1
    42    49    50    1
    43    49    52    1
    44    94    95    1
    45    50    51    2
    46   108   109    1
    47   108   111    1
    48   109   110    2
    49    95    97    1
    50     9    10    1
    51    20    19    2
    52    23    17    1
    53    23    22    1
    54    11    10    1
    55    54    52    1
    56    77    78    1
    57    77    75   am
    58    52    53    1
    59    78    81    1
    60    27    26    2
    61   111   112    1
    62   111   113    1
    63    17    18    1
    64    10    13    1
    65    82    81    1
    66    82    84    1
    67    82    83    1
    68    22    21    1
    69    19    18    1
    70    60    59    1
    71    74    75    1
    72    74    73    1
    73    13    14    1
    74    13    15    1
    75    59    56    1
    76    21    18    1
    77    75    76    2
    78    64    63    2
    79    26    25    1
    80    24    25    1
    81    14    16    1
    82    73    63   am
    83    25    28    1
    84    56    55    1
    85    56    57    1
    86    63    62    1
    87    28    30    1
    88    28    29    1
    89   119   120    1
    90   119   118    1
    91   120   114    1
    92     8     6    1
    93     7     6    1
    94    57    58    2
    95    62    65    1
    96    62    61    1
    97    65    66    1
    98   118   115    1
    99     6     5    1
   100   114   115    1
   101   186   185    2
   102   191   190    1
   103   193   196    1
   104   193   194    1
   105   193   192    1
   106   115   116    1
   107   194   195    2
   108     5     2    1
   109   188   189    1
   110   188   187    1
   111   189   190    1
   112    66    67   ar
   113    66    68   ar
   114   185   192   am
   115   185   184    1
   116    67    69   ar
   117   117   116    2
   118   183   184    1
   119   183   181   am
   120   116   121   am
   121   180   181    1
   122   180   179    1
   123    68    70   ar
   124   184   187    1
   125     2     1    1
   126     2     3    1
   127   181   182    2
   128     4     3    2
   129    69    71   ar
   130   121   122    1
   131   164   163    1
   132    70    71   ar
   133    71    72    1
   134   156   154    1
   135   122   125    1
   136   122   123    1
   137   155   154    1
   138   125   126    1
   139   160   159    2
   140   154   153    2
   141   163   162    1
   142   157   158    1
   143   161   162    1
   144   161   158    1
   145   127   126   ar
   146   136   135    2
   147   126   128   ar
   148   159   158    1
   149   159   165   am
   150   153   152    1
   151   123   124    2
   152   123   129   am
   153   135   137   am
   154   135   134    1
   155   152   151    1
   156   129   130    1
   157   134   133    1
   158   166   165    1
   159   166   169    1
   160   166   167    1
   161   169   170    1
   162   151   150    1
   163   133   130    1
   164   175   167   am
   165   175   176    1
   166   167   168    2
   167   130   131    1
   168   132   131    2
   169   150   147    1
   170   178   177    2
   171   176   177    1
   172   131   138   am
   173   170   172   ar
   174   170   171   ar
   175   172   174   ar
   176   147   146    1
   177   147   148    1
   178   141   140    2
   179   171   173   ar
   180   138   139    1
   181   140   146   am
   182   140   139    1
   183   148   149    2
   184   139   142    1
   185   174   173   ar
   186   142   143    1
   187   144   143   ar
   188   143   145   ar
