@<TRIPOS>MOLECULE
tmp/1t16A02.pdb
 171 162 0 0 0
SMALL
GASTEIGER

@<TRIPOS>ATOM
      1  N          8.4280   39.4890   47.0300 N.3   116  SER116     -0.1202
      2  CA         8.0480   40.8240   47.4770 C.3   116  SER116      0.2020
      3  C          8.9230   41.3170   48.6290 C.2   116  SER116      0.2618
      4  O          8.9750   42.5130   48.9000 O.2   116  SER116     -0.2717
      5  CB         6.5730   40.8490   47.9020 C.3   116  SER116      0.2103
      6  OG         6.3990   40.3320   49.2200 O.3   116  SER116     -0.2182
      7  N          9.6000   40.4040   49.3140 N.am  117  VAL117     -0.1979
      8  CA        10.4490   40.8080   50.4240 C.3   117  VAL117      0.1595
      9  C         11.8150   40.1700   50.3860 C.2   117  VAL117      0.2287
     10  O         12.5260   40.1330   51.3950 O.2   117  VAL117     -0.2864
     11  CB         9.7910   40.5040   51.7700 C.3   117  VAL117      0.0276
     12  CG1        8.5020   41.2800   51.8620 C.3   117  VAL117      0.0022
     13  CG2        9.5670   38.9830   51.9340 C.3   117  VAL117      0.0022
     14  N         12.9250   44.2760   44.4050 N.3   157  ARG157     -0.1245
     15  CA        11.8940   43.4240   44.9570 C.3   157  ARG157      0.1563
     16  C         10.9740   42.9730   43.8500 C.2   157  ARG157      0.2260
     17  O         10.8040   43.6820   42.8630 O.2   157  ARG157     -0.2867
     18  CB        11.1000   44.1930   46.0090 C.3   157  ARG157      0.0307
     19  CG        11.9100   44.5840   47.2030 C.3   157  ARG157      0.0489
     20  CD        12.4960   43.3560   47.8660 C.3   157  ARG157      0.2205
     21  NE        13.9260   43.5130   48.1650 N.pl3 157  ARG157     -0.0865
     22  CZ        14.4120   43.9620   49.3200 C.cat 157  ARG157      0.5346
     23  NH1       13.5940   44.3110   50.3040 N.pl3 157  ARG157      0.1354
     24  NH2       15.7180   44.0320   49.5020 N.pl3 157  ARG157      0.1354
     25  N          7.2460   40.5230   42.6780 N.3   159  ALA159     -0.1245
     26  CA         5.9700   40.0010   43.1350 C.3   159  ALA159      0.1562
     27  C          6.2910   38.5430   43.4050 C.2   159  ALA159      0.2260
     28  O          6.8080   37.8410   42.5260 O.2   159  ALA159     -0.2867
     29  CB         4.9040   40.1020   42.0210 C.3   159  ALA159      0.0290
     30  N          2.3450   36.8500   45.4850 N.3   162  LEU162     -0.1231
     31  CA         1.3270   37.7300   46.0080 C.3   162  LEU162      0.1693
     32  C          0.1420   37.6980   45.1050 C.2   162  LEU162      0.2592
     33  O         -0.9750   37.5600   45.5800 O.2   162  LEU162     -0.2718
     34  CB         1.8090   39.1650   46.1260 C.3   162  LEU162      0.0284
     35  CG         2.6640   39.4910   47.3470 C.3   162  LEU162      0.0019
     36  CD1        2.5280   40.9720   47.5650 C.3   162  LEU162      0.0001
     37  CD2        2.2220   38.7200   48.6030 C.3   162  LEU162      0.0001
     38  N          0.3940   37.8520   43.8020 N.am  163  GLY163     -0.1957
     39  CA        -0.6740   37.8220   42.8160 C.3   163  GLY163      0.1869
     40  C         -1.5860   36.6360   43.0640 C.2   163  GLY163      0.2309
     41  O         -2.7970   36.7660   42.9660 O.2   163  GLY163     -0.2863
     42  N         -1.8000   34.8980   46.0200 N.3   165  LEU165     -0.1231
     43  CA        -2.3820   35.0430   47.3420 C.3   165  LEU165      0.1693
     44  C         -3.5580   36.0090   47.2660 C.2   165  LEU165      0.2591
     45  O         -4.5650   35.8350   47.9500 O.2   165  LEU165     -0.2718
     46  CB        -1.3290   35.5390   48.3320 C.3   165  LEU165      0.0284
     47  CG        -0.2230   34.5060   48.6080 C.3   165  LEU165      0.0019
     48  CD1        0.8700   35.1180   49.4990 C.3   165  LEU165      0.0001
     49  CD2       -0.8470   33.2590   49.2530 C.3   165  LEU165      0.0001
     50  N         -3.4440   37.0210   46.4240 N.am  166  VAL166     -0.1980
     51  CA        -4.5250   37.9710   46.2860 C.3   166  VAL166      0.1595
     52  C         -5.7070   37.2870   45.6030 C.2   166  VAL166      0.2287
     53  O         -6.7900   37.1540   46.1900 O.2   166  VAL166     -0.2864
     54  CB        -4.0850   39.1710   45.4610 C.3   166  VAL166      0.0276
     55  CG1       -5.2960   39.9770   45.0130 C.3   166  VAL166      0.0022
     56  CG2       -3.1620   40.0300   46.2970 C.3   166  VAL166      0.0022
     57  N         -7.4780   34.8690   47.5200 N.3   169  GLN169     -0.1245
     58  CA        -8.2940   35.5100   48.5280 C.3   169  GLN169      0.1566
     59  C         -9.5580   36.1120   47.9000 C.2   169  GLN169      0.2260
     60  O        -10.6380   36.0290   48.4810 O.2   169  GLN169     -0.2867
     61  CB        -7.4720   36.6030   49.2240 C.3   169  GLN169      0.0367
     62  CG        -8.1630   37.2840   50.4090 C.3   169  GLN169      0.0905
     63  CD        -8.3850   36.3360   51.5800 C.2   169  GLN169      0.2608
     64  OE1       -9.1670   35.3870   51.4930 O.2   169  GLN169     -0.2717
     65  NE2       -7.6880   36.5870   52.6820 N.am  169  GLN169     -0.0878
     66  N         -4.6990   39.8500   39.1080 N.3   188  ALA188     -0.1245
     67  CA        -3.7510   39.5340   40.1670 C.3   188  ALA188      0.1562
     68  C         -3.0310   38.2050   39.8790 C.2   188  ALA188      0.2260
     69  O         -1.7920   38.0900   39.9500 O.2   188  ALA188     -0.2867
     70  CB        -4.4780   39.4760   41.5240 C.3   188  ALA188      0.0290
     71  N         -0.0320   38.3670   37.5200 N.3   191  ILE191     -0.1245
     72  CA         1.2780   38.9580   37.7730 C.3   191  ILE191      0.1561
     73  C          2.3430   37.9080   38.0230 C.2   191  ILE191      0.2260
     74  O          2.3140   37.1980   39.0300 O.2   191  ILE191     -0.2867
     75  CB         1.2700   39.9290   38.9590 C.3   191  ILE191      0.0252
     76  CG1        0.3560   41.1150   38.6610 C.3   191  ILE191      0.0019
     77  CG2        2.6530   40.4770   39.1740 C.3   191  ILE191      0.0019
     78  CD1       -1.0890   40.7850   38.7700 C.3   191  ILE191      0.0001
     79  N          8.7380   44.7290   41.2820 N.3   197  ILE197     -0.1245
     80  CA         7.8390   45.5050   42.1290 C.3   197  ILE197      0.1561
     81  C          8.4710   46.7650   42.7340 C.2   197  ILE197      0.2260
     82  O          7.7820   47.6450   43.2620 O.2   197  ILE197     -0.2867
     83  CB         7.3050   44.5920   43.2460 C.3   197  ILE197      0.0252
     84  CG1        5.7950   44.6710   43.2570 C.3   197  ILE197      0.0019
     85  CG2        7.9130   44.9220   44.5710 C.3   197  ILE197      0.0019
     86  CD1        5.1920   44.1630   41.9470 C.3   197  ILE197      0.0001
     87  N          4.8320   47.5410   37.9350 N.3   243  LEU243     -0.1245
     88  CA         3.3950   47.3380   38.0230 C.3   243  LEU243      0.1561
     89  C          2.6940   48.4830   37.3000 C.2   243  LEU243      0.2260
     90  O          3.2140   49.6020   37.2440 O.2   243  LEU243     -0.2867
     91  CB         2.9290   47.2800   39.4820 C.3   243  LEU243      0.0270
     92  CG         3.1280   45.9380   40.2020 C.3   243  LEU243      0.0019
     93  CD1        2.3630   45.9260   41.5150 C.3   243  LEU243      0.0001
     94  CD2        2.6360   44.8160   39.3100 C.3   243  LEU243      0.0001
     95  N         -2.3700   50.3450   40.0610 N.3   247  PHE247     -0.1241
     96  CA        -2.2760   49.8840   41.4490 C.3   247  PHE247      0.1605
     97  C         -2.1400   51.0170   42.4480 C.2   247  PHE247      0.2264
     98  O         -2.4710   50.8730   43.6290 O.2   247  PHE247     -0.2867
     99  CB        -1.0670   48.9610   41.6420 C.3   247  PHE247      0.0534
    100  CG        -1.1720   47.6480   40.9280 C.ar  247  PHE247     -0.0203
    101  CD1       -1.1920   47.5950   39.5310 C.ar  247  PHE247     -0.0042
    102  CD2       -1.2450   46.4600   41.6510 C.ar  247  PHE247     -0.0042
    103  CE1       -1.2830   46.3760   38.8530 C.ar  247  PHE247     -0.0003
    104  CE2       -1.3360   45.2330   40.9920 C.ar  247  PHE247     -0.0003
    105  CZ        -1.3550   45.1920   39.5830 C.ar  247  PHE247     -0.0000
    106  N         -2.6300   50.4230   49.2070 N.3   252  LEU252     -0.1231
    107  CA        -2.1110   49.0850   49.5050 C.3   252  LEU252      0.1678
    108  C         -0.6390   49.2040   49.9070 C.2   252  LEU252      0.2434
    109  O          0.0070   50.2130   49.6250 O.2   252  LEU252     -0.2733
    110  CB        -2.1990   48.1650   48.2850 C.3   252  LEU252      0.0284
    111  CG        -3.3520   48.2310   47.2920 C.3   252  LEU252      0.0019
    112  CD1       -3.3070   49.5570   46.5350 C.3   252  LEU252      0.0001
    113  CD2       -3.2190   47.0740   46.3170 C.3   252  LEU252      0.0001
    114  N         -0.0890   48.1690   50.5690 N.am  253  PRO253     -0.2718
    115  CA         1.3110   48.1250   51.0220 C.3   253  PRO253      0.1535
    116  C          2.3310   48.0900   49.8780 C.2   253  PRO253      0.2598
    117  O          3.5380   48.2120   50.1000 O.2   253  PRO253     -0.2715
    118  CB         1.3570   46.8560   51.8690 C.3   253  PRO253      0.0310
    119  CG        -0.0450   46.7670   52.4060 C.3   253  PRO253      0.0237
    120  CD        -0.8570   47.0680   51.1720 C.3   253  PRO253      0.0939
    121  N          1.8210   47.9200   48.6600 N.am  254  ILE254     -0.1964
    122  CA         2.6260   47.8650   47.4390 C.3   254  ILE254      0.1712
    123  C          3.4030   49.1780   47.1570 C.2   254  ILE254      0.2458
    124  O          2.8680   50.2730   47.3330 O.2   254  ILE254     -0.2730
    125  CB         1.6860   47.5000   46.2350 C.3   254  ILE254      0.0289
    126  CG1        2.3370   47.8280   44.8910 C.3   254  ILE254      0.0022
    127  CG2        0.3790   48.2330   46.3640 C.3   254  ILE254      0.0023
    128  CD1        3.3780   46.8340   44.4310 C.3   254  ILE254      0.0001
    129  N          4.6850   49.0780   46.7400 N.am  255  PRO255     -0.2727
    130  CA         5.4690   50.2820   46.4490 C.3   255  PRO255      0.1402
    131  C          4.7810   51.0010   45.3090 C.2   255  PRO255      0.2269
    132  O          3.9090   50.4350   44.6650 O.2   255  PRO255     -0.2865
    133  CB         6.8260   49.7250   46.0190 C.3   255  PRO255      0.0296
    134  CG         6.9090   48.4200   46.7210 C.3   255  PRO255      0.0237
    135  CD         5.5170   47.8700   46.5820 C.3   255  PRO255      0.0939
    136  N          8.7670   54.3840   47.9740 N.3   315  PHE315     -0.1227
    137  CA         9.0700   53.1500   48.6820 C.3   315  PHE315      0.1736
    138  C          9.2900   53.4760   50.1510 C.2   315  PHE315      0.2595
    139  O          9.6600   54.5940   50.4920 O.2   315  PHE315     -0.2718
    140  CB        10.3400   52.5170   48.0910 C.3   315  PHE315      0.0547
    141  CG        10.7250   51.2070   48.7230 C.ar  315  PHE315     -0.0202
    142  CD1       10.1720   50.0170   48.2780 C.ar  315  PHE315     -0.0042
    143  CD2       11.6340   51.1680   49.7730 C.ar  315  PHE315     -0.0042
    144  CE1       10.5190   48.8020   48.8700 C.ar  315  PHE315     -0.0003
    145  CE2       11.9880   49.9650   50.3720 C.ar  315  PHE315     -0.0003
    146  CZ        11.4310   48.7790   49.9220 C.ar  315  PHE315     -0.0000
    147  N          9.0430   52.5080   51.0200 N.am  316  GLN316     -0.1965
    148  CA         9.2680   52.7070   52.4400 C.3   316  GLN316      0.1733
    149  C          9.2850   51.3710   53.1470 C.2   316  GLN316      0.2616
    150  O          8.5510   50.4610   52.7800 O.2   316  GLN316     -0.2715
    151  CB         8.1890   53.5850   53.0640 C.3   316  GLN316      0.0408
    152  CG         8.5520   53.9680   54.4900 C.3   316  GLN316      0.0908
    153  CD         7.3580   54.1900   55.3920 C.2   316  GLN316      0.2608
    154  OE1        7.4900   54.1840   56.6190 O.2   316  GLN316     -0.2717
    155  NE2        6.1890   54.3940   54.7960 N.am  316  GLN316     -0.0878
    156  N         10.1290   51.2500   54.1620 N.am  317  LYS317     -0.1977
    157  CA        10.2270   50.0080   54.9070 C.3   317  LYS317      0.1596
    158  C         10.7130   50.3060   56.3050 C.2   317  LYS317      0.2287
    159  O         11.7150   50.9950   56.4840 O.2   317  LYS317     -0.2864
    160  CB        11.2060   49.0590   54.2140 C.3   317  LYS317      0.0298
    161  CG        11.1400   47.6030   54.6830 C.3   317  LYS317      0.0038
    162  CD        11.5650   47.4290   56.1290 C.3   317  LYS317      0.0206
    163  CE        11.5050   45.9760   56.5350 C.3   317  LYS317      0.1093
    164  NZ        12.4460   45.1600   55.7170 N.3   317  LYS317     -0.1314
    165  N          3.0810   38.2390   54.5520 N.3   401  PRO401     -0.2116
    166  CA         2.2490   37.0640   54.8510 C.3   401  PRO401      0.1372
    167  C          3.0820   35.8020   55.0100 C.2   401  PRO401      0.2244
    168  O          2.5450   34.6980   55.0870 O.2   401  PRO401     -0.2868
    169  CB         1.3360   36.9830   53.6410 C.3   401  PRO401      0.0268
    170  CG         2.2540   37.4130   52.5300 C.3   401  PRO401      0.0207
    171  CD         2.9840   38.6100   53.1250 C.3   401  PRO401      0.0892
@<TRIPOS>BOND
     1    90    89    2
     2    89    88    1
     3    71    72    1
     4    72    73    1
     5    72    75    1
     6    87    88    1
     7    88    91    1
     8    73    74    2
     9    76    78    1
    10    76    75    1
    11   103   101   ar
    12   103   105   ar
    13    75    77    1
    14    66    67    1
    15    94    92    1
    16    91    92    1
    17   101   100   ar
    18   105   104   ar
    19    68    69    2
    20    68    67    1
    21    95    96    1
    22    67    70    1
    23    92    93    1
    24   100    99    1
    25   100   102   ar
    26   104   102   ar
    27    79    80    1
    28    96    99    1
    29    96    97    1
    30    86    84    1
    31    29    26    1
    32    80    81    1
    33    80    83    1
    34    97    98    2
    35    28    27    2
    36    25    26    1
    37    81    82    2
    38    39    40    1
    39    39    38    1
    40    17    16    2
    41    41    40    2
    42    26    27    1
    43    83    84    1
    44    83    85    1
    45    38    32   am
    46    16    15    1
    47    14    15    1
    48   128   126    1
    49   132   131    2
    50   126   125    1
    51    15    18    1
    52    55    54    1
    53    32    33    2
    54    32    31    1
    55   131   130    1
    56    54    51    1
    57    54    56    1
    58    30    31    1
    59    52    53    2
    60    52    51    1
    61    31    34    1
    62    18    19    1
    63   133   130    1
    64   133   134    1
    65    42    43    1
    66    34    35    1
    67   125   127    1
    68   125   122    1
    69    51    50    1
    70   113   111    1
    71    50    44   am
    72   130   129    1
    73   112   111    1
    74   135   134    1
    75   135   129    1
    76   129   123   am
    77     1     2    1
    78   123   124    2
    79   123   122    1
    80    19    20    1
    81    44    43    1
    82    44    45    2
    83   111   110    1
    84    43    46    1
    85    35    36    1
    86    35    37    1
    87   122   121    1
    88     2     5    1
    89     2     3    1
    90    57    58    1
    91    20    21    1
    92    59    60    2
    93    59    58    1
    94     5     6    1
    95   136   137    1
    96   140   137    1
    97   140   141    1
    98    21    22    2
    99   142   141   ar
   100   142   144   ar
   101   110   107    1
   102    46    47    1
   103    58    61    1
   104    47    49    1
   105    47    48    1
   106     3     4    2
   107     3     7   am
   108   121   116   am
   109   137   138    1
   110   141   143   ar
   111   144   146   ar
   112   106   107    1
   113    61    62    1
   114     7     8    1
   115    22    24    1
   116    22    23    1
   117   107   108    1
   118   109   108    2
   119   143   145   ar
   120   116   117    2
   121   116   115    1
   122   108   114   am
   123   146   145   ar
   124   138   139    2
   125   138   147   am
   126     9     8    1
   127     9    10    2
   128    62    63    1
   129     8    11    1
   130   114   115    1
   131   114   120    1
   132   147   148    1
   133   115   118    1
   134   120   119    1
   135    64    63    2
   136    63    65   am
   137    11    12    1
   138    11    13    1
   139   118   119    1
   140   148   151    1
   141   148   149    1
   142   170   171    1
   143   170   169    1
   144   150   149    2
   145   151   152    1
   146   171   165    1
   147   149   156   am
   148   169   166    1
   149   156   157    1
   150   160   161    1
   151   160   157    1
   152   152   153    1
   153   165   166    1
   154   161   162    1
   155   155   153   am
   156   166   167    1
   157   157   158    1
   158   167   168    2
   159   153   154    2
   160   164   163    1
   161   162   163    1
   162   158   159    2
