@<TRIPOS>MOLECULE
tmp/1t1rB00.pdb
 152 147 0 0 0
SMALL
GASTEIGER

@<TRIPOS>ATOM
      1  N         26.4750   10.5960   20.1930 N.3   125  LYS125     -0.1245
      2  CA        25.3850    9.7320   20.6440 C.3   125  LYS125      0.1561
      3  C         24.5120    9.1050   19.5550 C.2   125  LYS125      0.2260
      4  O         23.8380    8.0970   19.8020 O.2   125  LYS125     -0.2867
      5  CB        24.4950   10.4740   21.6610 C.3   125  LYS125      0.0271
      6  CG        23.7360   11.6660   21.1010 C.3   125  LYS125      0.0035
      7  CD        22.7810   12.2690   22.1290 C.3   125  LYS125      0.0206
      8  CE        22.0600   13.4860   21.5520 C.3   125  LYS125      0.1093
      9  NZ        21.0370   14.0590   22.4720 N.3   125  LYS125     -0.1314
     10  N         26.8060   12.8080   26.5770 N.3   150  ASP150     -0.1225
     11  CA        25.4290   13.2750   26.5480 C.3   150  ASP150      0.1805
     12  C         25.0330   13.5430   28.0110 C.2   150  ASP150      0.2598
     13  O         25.3040   12.7300   28.8990 O.2   150  ASP150     -0.2718
     14  CB        24.5460   12.1710   25.9590 C.3   150  ASP150      0.1424
     15  CG        23.0930   12.3480   26.2980 C.2   150  ASP150      0.3668
     16  OD1       22.3760   12.9990   25.5110 O.co2 150  ASP150     -0.2456
     17  OD2       22.6640   11.8440   27.3560 O.co2 150  ASP150     -0.2456
     18  N         24.3940   14.6800   28.2520 N.am  151  SER151     -0.1938
     19  CA        23.9750   15.0680   29.5930 C.3   151  SER151      0.2055
     20  C         23.1010   14.0330   30.3260 C.2   151  SER151      0.2642
     21  O         23.2820   13.7880   31.5210 O.2   151  SER151     -0.2714
     22  CB        23.2420   16.4050   29.5150 C.3   151  SER151      0.2130
     23  OG        22.7320   16.7820   30.7730 O.3   151  SER151     -0.2179
     24  N         22.1550   13.4330   29.6120 N.am  152  GLU152     -0.1976
     25  CA        21.2610   12.4440   30.2040 C.3   152  GLU152      0.1602
     26  C         21.9810   11.1400   30.5380 C.2   152  GLU152      0.2287
     27  O         21.8820   10.6280   31.6630 O.2   152  GLU152     -0.2864
     28  CB        20.0910   12.1500   29.2580 C.3   152  GLU152      0.0415
     29  CG        19.1460   13.3270   29.0320 C.3   152  GLU152      0.1163
     30  CD        19.7180   14.3550   28.0730 C.2   152  GLU152      0.3649
     31  OE1       19.0850   15.4150   27.8740 O.co2 152  GLU152     -0.2457
     32  OE2       20.8000   14.0900   27.5110 O.co2 152  GLU152     -0.2457
     33  N         13.4520   26.8450   23.0730 N.3   209  HIS209     -0.1241
     34  CA        13.7440   25.7940   24.0450 C.3   209  HIS209      0.1621
     35  C         13.3960   26.3020   25.4420 C.2   209  HIS209      0.2264
     36  O         13.8360   27.3820   25.8450 O.2   209  HIS209     -0.2867
     37  CB        15.2210   25.3850   23.9710 C.3   209  HIS209      0.0745
     38  CG        15.5670   24.2210   24.8470 C.ar  209  HIS209      0.0817
     39  ND1       15.8580   24.3560   26.1880 N.ar  209  HIS209     -0.2268
     40  CD2       15.6170   22.8930   24.5850 C.ar  209  HIS209      0.1154
     41  CE1       16.0700   23.1630   26.7130 C.ar  209  HIS209      0.1986
     42  NE2       15.9300   22.2580   25.7620 N.ar  209  HIS209     -0.2212
     43  N         17.5120   26.3130   28.3900 N.3   212  TRP212     -0.1227
     44  CA        18.6750   26.8700   27.7060 C.3   212  TRP212      0.1737
     45  C         18.4470   26.9530   26.1990 C.2   212  TRP212      0.2596
     46  O         17.5100   26.3540   25.6680 O.2   212  TRP212     -0.2718
     47  CB        19.9150   26.0260   28.0060 C.3   212  TRP212      0.0564
     48  CG        19.7920   24.5960   27.5750 C.ar  212  TRP212      0.0003
     49  CD1       20.2990   24.0320   26.4380 C.ar  212  TRP212      0.0946
     50  CD2       19.1110   23.5490   28.2730 C.ar  212  TRP212      0.0152
     51  NE1       19.9780   22.6960   26.3880 N.ar  212  TRP212     -0.2442
     52  CE2       19.2480   22.3730   27.5010 C.ar  212  TRP212      0.0810
     53  CE3       18.3970   23.4890   29.4770 C.ar  212  TRP212      0.0012
     54  CZ2       18.6960   21.1490   27.8950 C.ar  212  TRP212      0.0191
     55  CZ3       17.8490   22.2710   29.8690 C.ar  212  TRP212      0.0001
     56  CH2       18.0020   21.1170   29.0780 C.ar  212  TRP212      0.0015
     57  N         19.3110   27.6990   25.5180 N.am  213  SER213     -0.1938
     58  CA        19.2120   27.8810   24.0740 C.3   213  SER213      0.2055
     59  C         20.0970   26.8930   23.3090 C.2   213  SER213      0.2642
     60  O         21.1860   26.5360   23.7640 O.2   213  SER213     -0.2714
     61  CB        19.5990   29.3210   23.7130 C.3   213  SER213      0.2130
     62  OG        19.3830   29.5910   22.3390 O.3   213  SER213     -0.2179
     63  N         19.6190   26.4490   22.1490 N.am  214  MET214     -0.1976
     64  CA        20.3710   25.5100   21.3180 C.3   214  MET214      0.1605
     65  C         19.9330   25.5530   19.8490 C.2   214  MET214      0.2287
     66  O         19.0520   26.3290   19.4810 O.2   214  MET214     -0.2864
     67  CB        20.2270   24.0830   21.8620 C.3   214  MET214      0.0413
     68  CG        18.7860   23.6160   22.0440 C.3   214  MET214      0.0598
     69  SD        18.6480   21.8130   22.2380 S.3   214  MET214     -0.1393
     70  CE        19.5320   21.5720   23.7690 C.3   214  MET214      0.0692
     71  N         17.8140   20.4620   16.9010 N.3   218  ILE218     -0.1245
     72  CA        17.7630   19.8180   18.2070 C.3   218  ILE218      0.1561
     73  C         16.6890   20.4380   19.0990 C.2   218  ILE218      0.2260
     74  O         16.2450   19.8150   20.0650 O.2   218  ILE218     -0.2867
     75  CB        19.1380   19.8670   18.9330 C.3   218  ILE218      0.0252
     76  CG1       19.6190   21.3150   19.0740 C.3   218  ILE218      0.0019
     77  CG2       20.1490   19.0070   18.1750 C.3   218  ILE218      0.0019
     78  CD1       21.0210   21.4540   19.6550 C.3   218  ILE218      0.0001
     79  N         13.4150   18.4250   20.6680 N.3   222  SER222     -0.1217
     80  CA        13.0560   18.5710   22.0760 C.3   222  SER222      0.1889
     81  C         11.5600   18.8590   22.2070 C.2   222  SER222      0.2288
     82  O         10.9410   18.5290   23.2130 O.2   222  SER222     -0.2866
     83  CB        13.8610   19.7140   22.7050 C.3   222  SER222      0.2089
     84  OG        13.3190   20.1050   23.9490 O.3   222  SER222     -0.2183
     85  N         14.1580   13.6410   20.6750 N.3   227  ASN227     -0.1225
     86  CA        15.4760   13.5890   21.2830 C.3   227  ASN227      0.1785
     87  C         15.4400   12.5760   22.4130 C.2   227  ASN227      0.2597
     88  O         16.3410   11.7740   22.5670 O.2   227  ASN227     -0.2718
     89  CB        15.9380   14.9740   21.7900 C.3   227  ASN227      0.1169
     90  CG        15.0530   15.5490   22.9030 C.2   227  ASN227      0.2627
     91  OD1       15.4900   16.4450   23.6400 O.2   227  ASN227     -0.2716
     92  ND2       13.8080   15.0580   23.0190 N.am  227  ASN227     -0.0877
     93  N         14.3690   12.5880   23.1840 N.am  228  LYS228     -0.1980
     94  CA        14.2360   11.6400   24.2730 C.3   228  LYS228      0.1596
     95  C         14.0770   10.2210   23.7100 C.2   228  LYS228      0.2287
     96  O         14.5060    9.2410   24.3220 O.2   228  LYS228     -0.2864
     97  CB        13.0350   12.0310   25.1280 C.3   228  LYS228      0.0298
     98  CG        13.3280   12.0300   26.6140 C.3   228  LYS228      0.0038
     99  CD        14.7040   12.6290   26.9450 C.3   228  LYS228      0.0206
    100  CE        14.8590   14.0670   26.4730 C.3   228  LYS228      0.1093
    101  NZ        16.1730   14.6100   26.9400 N.3   228  LYS228     -0.1314
    102  N         17.4840    9.1500   22.6670 N.3   231  GLU231     -0.1245
    103  CA        18.2470    8.9150   23.8930 C.3   231  GLU231      0.1567
    104  C         17.8090    7.6060   24.5510 C.2   231  GLU231      0.2260
    105  O         18.6240    6.9070   25.1560 O.2   231  GLU231     -0.2867
    106  CB        18.0940   10.1070   24.8380 C.3   231  GLU231      0.0388
    107  CG        18.7240   11.3550   24.2400 C.3   231  GLU231      0.1160
    108  CD        18.4920   12.6320   25.0300 C.2   231  GLU231      0.3649
    109  OE1       18.9470   13.6870   24.5500 O.co2 231  GLU231     -0.2457
    110  OE2       17.8690   12.5990   26.1120 O.co2 231  GLU231     -0.2457
    111  N         19.2060   15.7460   35.7300 N.3   257  HIS257     -0.1241
    112  CA        19.5320   15.3440   34.3670 C.3   257  HIS257      0.1621
    113  C         19.1220   13.9270   33.9730 C.2   257  HIS257      0.2264
    114  O         19.0470   13.6140   32.7890 O.2   257  HIS257     -0.2867
    115  CB        21.0110   15.5980   34.1220 C.3   257  HIS257      0.0745
    116  CG        21.3580   17.0510   34.1490 C.ar  257  HIS257      0.0817
    117  ND1       22.6350   17.5150   34.3700 N.ar  257  HIS257     -0.2268
    118  CD2       20.5770   18.1490   34.0140 C.ar  257  HIS257      0.1154
    119  CE1       22.6240   18.8370   34.3740 C.ar  257  HIS257      0.1986
    120  NE2       21.3870   19.2460   34.1610 N.ar  257  HIS257     -0.2212
    121  N         23.8480   22.6180   36.4450 N.3   273  GLU273     -0.1231
    122  CA        23.5850   23.6860   35.4930 C.3   273  GLU273      0.1684
    123  C         23.5570   23.1120   34.0860 C.2   273  GLU273      0.2434
    124  O         24.0860   22.0310   33.8430 O.2   273  GLU273     -0.2733
    125  CB        24.6870   24.7470   35.5880 C.3   273  GLU273      0.0402
    126  CG        24.7910   25.4300   36.9520 C.3   273  GLU273      0.1161
    127  CD        23.7440   26.5160   37.1610 C.2   273  GLU273      0.3649
    128  OE1       23.7210   27.1110   38.2570 O.co2 273  GLU273     -0.2457
    129  OE2       22.9480   26.7860   36.2350 O.co2 273  GLU273     -0.2457
    130  N         22.9200   23.8270   33.1460 N.am  274  PRO274     -0.2718
    131  CA        22.8190   23.4010   31.7470 C.3   274  PRO274      0.1535
    132  C         24.0750   23.7850   30.9760 C.2   274  PRO274      0.2599
    133  O         24.0200   24.6000   30.0600 O.2   274  PRO274     -0.2715
    134  CB        21.5980   24.1610   31.2520 C.3   274  PRO274      0.0310
    135  CG        21.7310   25.4490   31.9780 C.3   274  PRO274      0.0237
    136  CD        22.0680   25.0060   33.3880 C.3   274  PRO274      0.0939
    137  N         25.2040   23.2050   31.3550 N.am  275  ASP275     -0.1958
    138  CA        26.4750   23.5050   30.7070 C.3   275  ASP275      0.1840
    139  C         27.1940   22.1920   30.4240 C.2   275  ASP275      0.2621
    140  O         27.5550   21.4630   31.3420 O.2   275  ASP275     -0.2715
    141  CB        27.3200   24.3950   31.6240 C.3   275  ASP275      0.1450
    142  CG        28.5200   24.9990   30.9200 C.2   275  ASP275      0.3671
    143  OD1       29.3270   24.2440   30.3330 O.co2 275  ASP275     -0.2456
    144  OD2       28.6610   26.2370   30.9650 O.co2 275  ASP275     -0.2456
    145  N         27.3940   21.9000   29.1440 N.am  276  MET276     -0.1977
    146  CA        28.0470   20.6670   28.7190 C.3   276  MET276      0.1605
    147  C         29.4420   20.4510   29.2880 C.2   276  MET276      0.2287
    148  O         29.9380   19.3340   29.2960 O.2   276  MET276     -0.2864
    149  CB        28.1000   20.6110   27.1910 C.3   276  MET276      0.0413
    150  CG        26.7350   20.4180   26.5420 C.3   276  MET276      0.0598
    151  SD        25.8290   19.0210   27.2740 S.3   276  MET276     -0.1393
    152  CE        26.8450   17.6150   26.7870 C.3   276  MET276      0.0692
@<TRIPOS>BOND
     1    71    72    1
     2    77    75    1
     3    72    75    1
     4    72    73    1
     5    75    76    1
     6    76    78    1
     7    73    74    2
     8    66    65    2
     9     3     4    2
    10     3     2    1
    11    65    64    1
    12     1     2    1
    13     2     5    1
    14    79    80    1
    15    85    86    1
    16     6     5    1
    17     6     7    1
    18    86    89    1
    19    86    87    1
    20    64    67    1
    21    64    63    1
    22     8     7    1
    23     8     9    1
    24    89    90    1
    25    67    68    1
    26    68    69    1
    27    80    81    1
    28    80    83    1
    29    63    59   am
    30    81    82    2
    31    69    70    1
    32    62    61    1
    33    87    88    2
    34    87    93   am
    35   102   103    1
    36    83    84    1
    37    90    92   am
    38    90    91    2
    39    33    34    1
    40    93    94    1
    41    59    60    2
    42    59    58    1
    43    95    94    1
    44    95    96    2
    45    61    58    1
    46   103   104    1
    47   103   106    1
    48    37    34    1
    49    37    38    1
    50    34    35    1
    51    58    57    1
    52   107   106    1
    53   107   108    1
    54    94    97    1
    55   109   108   ar
    56   104   105    2
    57    40    38   ar
    58    40    42   ar
    59    38    39   ar
    60   108   110   ar
    61    97    98    1
    62    35    36    2
    63    16    15   ar
    64    57    45   am
    65    46    45    2
    66    42    41   ar
    67    14    15    1
    68    14    11    1
    69    39    41   ar
    70    45    44    1
    71    15    17   ar
    72    51    49   ar
    73    51    52   ar
    74    49    48   ar
    75   100   101    1
    76   100    99    1
    77   150   149    1
    78   150   151    1
    79    11    10    1
    80    11    12    1
    81    98    99    1
    82   152   151    1
    83   149   146    1
    84    52    54   ar
    85    52    50   ar
    86    32    30   ar
    87    48    47    1
    88    48    50   ar
    89    44    47    1
    90    44    43    1
    91    31    30   ar
    92    54    56   ar
    93    12    18   am
    94    12    13    2
    95    30    29    1
    96    18    19    1
    97    50    53   ar
    98   146   145    1
    99   146   147    1
   100    29    28    1
   101    56    55   ar
   102   145   139   am
   103    28    25    1
   104   147   148    2
   105    53    55   ar
   106    22    19    1
   107    22    23    1
   108    19    20    1
   109    24    25    1
   110    24    20   am
   111   133   132    2
   112    25    26    1
   113    20    21    2
   114   143   142   ar
   115   139   138    1
   116   139   140    2
   117    26    27    2
   118   138   137    1
   119   138   141    1
   120   142   144   ar
   121   142   141    1
   122   132   137   am
   123   132   131    1
   124   134   131    1
   125   134   135    1
   126   131   130    1
   127   135   136    1
   128   114   113    2
   129   130   136    1
   130   130   123   am
   131   124   123    2
   132   113   112    1
   133   118   116   ar
   134   118   120   ar
   135   123   122    1
   136   115   116    1
   137   115   112    1
   138   116   117   ar
   139   120   119   ar
   140   112   111    1
   141   117   119   ar
   142   122   125    1
   143   122   121    1
   144   125   126    1
   145   129   127   ar
   146   126   127    1
   147   127   128   ar
