@<TRIPOS>MOLECULE
tmp/1t1sB00.pdb
 142 133 0 0 0
SMALL
GASTEIGER

@<TRIPOS>ATOM
      1  N         26.8150   10.7800   20.3530 N.3   125  LYS125     -0.1245
      2  CA        25.7940    9.8750   20.8710 C.3   125  LYS125      0.1561
      3  C         24.7850    9.3370   19.8600 C.2   125  LYS125      0.2260
      4  O         24.0460    8.3970   20.1630 O.2   125  LYS125     -0.2867
      5  CB        25.0630   10.5300   22.0580 C.3   125  LYS125      0.0271
      6  CG        24.8040   12.0210   21.9010 C.3   125  LYS125      0.0035
      7  CD        23.6000   12.3050   21.0260 C.3   125  LYS125      0.0206
      8  CE        22.3280   12.3400   21.8490 C.3   125  LYS125      0.1093
      9  NZ        22.3270   13.4870   22.7990 N.3   125  LYS125     -0.1314
     10  N         26.8560   13.2550   26.3890 N.3   150  ASP150     -0.1225
     11  CA        25.6010   13.9980   26.4260 C.3   150  ASP150      0.1805
     12  C         25.1220   14.1140   27.8770 C.2   150  ASP150      0.2598
     13  O         25.3760   13.2390   28.7130 O.2   150  ASP150     -0.2718
     14  CB        24.5270   13.3330   25.5580 C.3   150  ASP150      0.1424
     15  CG        23.6310   12.4030   26.3450 C.2   150  ASP150      0.3668
     16  OD1       22.4230   12.3370   26.0440 O.co2 150  ASP150     -0.2456
     17  OD2       24.1230   11.7310   27.2640 O.co2 150  ASP150     -0.2456
     18  N         24.4300   15.2050   28.1680 N.am  151  SER151     -0.1938
     19  CA        23.9330   15.4780   29.5040 C.3   151  SER151      0.2055
     20  C         23.1370   14.3500   30.1830 C.2   151  SER151      0.2642
     21  O         23.3810   14.0340   31.3510 O.2   151  SER151     -0.2714
     22  CB        23.0940   16.7550   29.4690 C.3   151  SER151      0.2130
     23  OG        22.5970   17.0610   30.7550 O.3   151  SER151     -0.2179
     24  N         22.1910   13.7510   29.4640 N.am  152  GLU152     -0.1976
     25  CA        21.3680   12.6850   30.0340 C.3   152  GLU152      0.1602
     26  C         22.1240   11.4040   30.3670 C.2   152  GLU152      0.2287
     27  O         22.0750   10.9270   31.5040 O.2   152  GLU152     -0.2864
     28  CB        20.2040   12.3350   29.0960 C.3   152  GLU152      0.0415
     29  CG        19.2590   13.4810   28.8280 C.3   152  GLU152      0.1163
     30  CD        19.8150   14.4770   27.8230 C.2   152  GLU152      0.3649
     31  OE1       19.1600   15.5210   27.6090 O.co2 152  GLU152     -0.2457
     32  OE2       20.8940   14.2100   27.2430 O.co2 152  GLU152     -0.2457
     33  N         15.2930   11.8340   31.6650 N.3   184  THR184     -0.1218
     34  CA        14.4750   13.0280   31.8120 C.3   184  THR184      0.1862
     35  C         14.6120   14.0420   30.6830 C.2   184  THR184      0.2287
     36  O         15.6770   14.1880   30.0840 O.2   184  THR184     -0.2866
     37  CB        14.7970   13.7500   33.1270 C.3   184  THR184      0.1770
     38  OG1       16.2090   13.9930   33.2000 O.3   184  THR184     -0.2211
     39  CG2       14.3500   12.9080   34.3170 C.3   184  THR184      0.0375
     40  N         13.4660   26.9180   22.9460 N.3   209  HIS209     -0.1241
     41  CA        13.7710   25.8730   23.9150 C.3   209  HIS209      0.1621
     42  C         13.4880   26.4220   25.3110 C.2   209  HIS209      0.2264
     43  O         13.9830   27.4910   25.6760 O.2   209  HIS209     -0.2867
     44  CB        15.2310   25.4300   23.7920 C.3   209  HIS209      0.0745
     45  CG        15.5760   24.2670   24.6660 C.ar  209  HIS209      0.0817
     46  ND1       15.6670   24.3700   26.0370 N.ar  209  HIS209     -0.2268
     47  CD2       15.7970   22.9640   24.3720 C.ar  209  HIS209      0.1154
     48  CE1       15.9250   23.1800   26.5490 C.ar  209  HIS209      0.1986
     49  NE2       16.0080   22.3090   25.5600 N.ar  209  HIS209     -0.2212
     50  N         17.6210   26.7700   28.3390 N.3   212  TRP212     -0.1241
     51  CA        18.7760   27.2690   27.6040 C.3   212  TRP212      0.1605
     52  C         18.4470   27.2280   26.1120 C.2   212  TRP212      0.2264
     53  O         17.4320   26.6570   25.7100 O.2   212  TRP212     -0.2867
     54  CB        19.9970   26.3940   27.9000 C.3   212  TRP212      0.0550
     55  CG        19.8610   24.9980   27.3800 C.ar  212  TRP212      0.0003
     56  CD1       20.3590   24.5070   26.2080 C.ar  212  TRP212      0.0946
     57  CD2       19.1310   23.9250   27.9880 C.ar  212  TRP212      0.0152
     58  NE1       19.9850   23.1950   26.0460 N.ar  212  TRP212     -0.2442
     59  CE2       19.2290   22.8110   27.1230 C.ar  212  TRP212      0.0810
     60  CE3       18.4010   23.7950   29.1790 C.ar  212  TRP212      0.0012
     61  CZ2       18.6220   21.5810   27.4110 C.ar  212  TRP212      0.0191
     62  CZ3       17.7980   22.5700   29.4660 C.ar  212  TRP212      0.0001
     63  CH2       17.9140   21.4810   28.5840 C.ar  212  TRP212      0.0015
     64  N         19.6010   26.4420   21.9620 N.3   214  MET214     -0.1245
     65  CA        20.3990   25.5310   21.1520 C.3   214  MET214      0.1570
     66  C         19.9530   25.5970   19.6940 C.2   214  MET214      0.2261
     67  O         18.9970   26.3060   19.3660 O.2   214  MET214     -0.2867
     68  CB        20.2710   24.0980   21.6870 C.3   214  MET214      0.0387
     69  CG        18.8550   23.6870   22.0960 C.3   214  MET214      0.0595
     70  SD        18.7140   21.9350   22.5800 S.3   214  MET214     -0.1393
     71  CE        20.2860   21.6920   23.4420 C.3   214  MET214      0.0692
     72  N         17.9040   20.7080   16.8440 N.3   218  ILE218     -0.1245
     73  CA        17.8330   20.0610   18.1480 C.3   218  ILE218      0.1561
     74  C         16.7490   20.6750   19.0350 C.2   218  ILE218      0.2260
     75  O         16.3270   20.0680   20.0220 O.2   218  ILE218     -0.2867
     76  CB        19.2030   20.1000   18.8820 C.3   218  ILE218      0.0252
     77  CG1       19.7730   21.5210   18.8600 C.3   218  ILE218      0.0019
     78  CG2       20.1630   19.0910   18.2430 C.3   218  ILE218      0.0019
     79  CD1       21.2220   21.6210   19.3260 C.3   218  ILE218      0.0001
     80  N         13.4390   18.5370   20.6040 N.3   222  SER222     -0.1217
     81  CA        13.1010   18.7030   22.0080 C.3   222  SER222      0.1889
     82  C         11.6000   18.9560   22.1580 C.2   222  SER222      0.2288
     83  O         10.9950   18.5940   23.1720 O.2   222  SER222     -0.2866
     84  CB        13.8870   19.8800   22.5920 C.3   222  SER222      0.2089
     85  OG        13.3990   20.2370   23.8700 O.3   222  SER222     -0.2183
     86  N         14.2200   13.7350   20.5240 N.3   227  ASN227     -0.1225
     87  CA        15.5460   13.7110   21.1290 C.3   227  ASN227      0.1785
     88  C         15.5470   12.7380   22.2960 C.2   227  ASN227      0.2597
     89  O         16.5260   12.0430   22.5370 O.2   227  ASN227     -0.2718
     90  CB        15.9890   15.1140   21.5940 C.3   227  ASN227      0.1169
     91  CG        15.1200   15.6850   22.7080 C.2   227  ASN227      0.2627
     92  OD1       15.5430   16.6020   23.4180 O.2   227  ASN227     -0.2716
     93  ND2       13.9040   15.1660   22.8600 N.am  227  ASN227     -0.0877
     94  N         14.4330   12.6750   23.0080 N.am  228  LYS228     -0.1980
     95  CA        14.3150   11.7660   24.1340 C.3   228  LYS228      0.1596
     96  C         14.1530   10.3530   23.5710 C.2   228  LYS228      0.2287
     97  O         14.5260    9.3680   24.2010 O.2   228  LYS228     -0.2864
     98  CB        13.1060   12.1650   24.9800 C.3   228  LYS228      0.0298
     99  CG        13.3540   12.1370   26.4790 C.3   228  LYS228      0.0038
    100  CD        14.7150   12.7310   26.8840 C.3   228  LYS228      0.0206
    101  CE        14.9210   14.1550   26.4010 C.3   228  LYS228      0.1093
    102  NZ        16.2140   14.6980   26.9240 N.3   228  LYS228     -0.1314
    103  N         17.6570    9.3320   22.5010 N.3   231  GLU231     -0.1245
    104  CA        18.4260    9.0820   23.7300 C.3   231  GLU231      0.1567
    105  C         17.9990    7.7800   24.4140 C.2   231  GLU231      0.2260
    106  O         18.8090    7.1110   25.0580 O.2   231  GLU231     -0.2867
    107  CB        18.2790   10.2670   24.6900 C.3   231  GLU231      0.0388
    108  CG        18.8850   11.5290   24.1180 C.3   231  GLU231      0.1160
    109  CD        18.5190   12.7910   24.8690 C.2   231  GLU231      0.3649
    110  OE1       18.9320   13.8720   24.4120 O.co2 231  GLU231     -0.2457
    111  OE2       17.8320   12.7230   25.9060 O.co2 231  GLU231     -0.2457
    112  N         14.6810   20.8950   34.0740 N.3   254  SER254     -0.1217
    113  CA        15.9690   20.3950   33.6170 C.3   254  SER254      0.1889
    114  C         17.0940   20.6640   34.6200 C.2   254  SER254      0.2288
    115  O         18.2260   20.9300   34.2240 O.2   254  SER254     -0.2866
    116  CB        16.3410   21.0280   32.2740 C.3   254  SER254      0.2089
    117  OG        15.3840   20.7310   31.2740 O.3   254  SER254     -0.2183
    118  N         19.3610   16.0040   35.6830 N.3   257  HIS257     -0.1241
    119  CA        19.6820   15.5980   34.3210 C.3   257  HIS257      0.1621
    120  C         19.2810   14.1710   33.9350 C.2   257  HIS257      0.2264
    121  O         19.2400   13.8370   32.7550 O.2   257  HIS257     -0.2867
    122  CB        21.1670   15.8490   34.0550 C.3   257  HIS257      0.0745
    123  CG        21.5540   17.2910   34.1790 C.ar  257  HIS257      0.0817
    124  ND1       20.6840   18.3210   33.8830 N.ar  257  HIS257     -0.2268
    125  CD2       22.7040   17.8780   34.5810 C.ar  257  HIS257      0.1154
    126  CE1       21.2810   19.4790   34.1030 C.ar  257  HIS257      0.1986
    127  NE2       22.5090   19.2380   34.5260 N.ar  257  HIS257     -0.2212
    128  N         23.0660   24.0350   32.9500 N.3   274  PRO274     -0.2116
    129  CA        22.9860   23.4990   31.5870 C.3   274  PRO274      0.1372
    130  C         24.2590   23.6820   30.7590 C.2   274  PRO274      0.2244
    131  O         24.1970   23.7980   29.5390 O.2   274  PRO274     -0.2868
    132  CB        21.7950   24.2500   30.9960 C.3   274  PRO274      0.0268
    133  CG        21.8690   25.5660   31.6830 C.3   274  PRO274      0.0207
    134  CD        22.1640   25.1920   33.1120 C.3   274  PRO274      0.0892
    135  N         27.5570   22.3040   29.0950 N.3   276  MET276     -0.1245
    136  CA        28.1590   21.0550   28.6360 C.3   276  MET276      0.1570
    137  C         29.5470   20.7720   29.2020 C.2   276  MET276      0.2261
    138  O         29.9820   19.6250   29.2120 O.2   276  MET276     -0.2867
    139  CB        28.2130   21.0170   27.1070 C.3   276  MET276      0.0387
    140  CG        26.8750   20.6810   26.4670 C.3   276  MET276      0.0595
    141  SD        26.0910   19.2070   27.2100 S.3   276  MET276     -0.1393
    142  CE        27.1570   17.8700   26.5870 C.3   276  MET276      0.0692
@<TRIPOS>BOND
     1    72    73    1
     2    73    76    1
     3    73    74    1
     4    78    76    1
     5    77    76    1
     6    77    79    1
     7    74    75    2
     8    67    66    2
     9    66    65    1
    10     3     4    2
    11     3     2    1
    12     1     2    1
    13    86    87    1
    14    80    81    1
    15     2     5    1
    16     7     8    1
    17     7     6    1
    18    87    90    1
    19    87    88    1
    20    65    68    1
    21    65    64    1
    22    90    91    1
    23    68    69    1
    24     8     9    1
    25     6     5    1
    26    81    82    1
    27    81    84    1
    28    69    70    1
    29    82    83    2
    30    88    89    2
    31    88    94   am
    32   103   104    1
    33    70    71    1
    34    84    85    1
    35    91    93   am
    36    91    92    2
    37    40    41    1
    38    94    95    1
    39    96    95    1
    40    96    97    2
    41   104   105    1
    42   104   107    1
    43    44    41    1
    44    44    45    1
    45    41    42    1
    46   108   107    1
    47   108   109    1
    48    95    98    1
    49    47    45   ar
    50    47    49   ar
    51   110   109   ar
    52   105   106    2
    53    45    46   ar
    54   109   111   ar
    55    98    99    1
    56    42    43    2
    57    14    15    1
    58    14    11    1
    59    49    48   ar
    60    53    52    2
    61    46    48   ar
    62    16    15   ar
    63    58    56   ar
    64    58    59   ar
    65    52    51    1
    66    56    55   ar
    67    15    17   ar
    68    10    11    1
    69   101   100    1
    70   101   102    1
    71    11    12    1
    72   140   139    1
    73   140   141    1
    74    99   100    1
    75   142   141    1
    76   139   136    1
    77    59    61   ar
    78    59    57   ar
    79    32    30   ar
    80    55    54    1
    81    55    57   ar
    82    61    63   ar
    83    51    54    1
    84    51    50    1
    85    31    30   ar
    86    30    29    1
    87    12    18   am
    88    12    13    2
    89    57    60   ar
    90    18    19    1
    91    63    62   ar
    92   136   135    1
    93   136   137    1
    94    29    28    1
    95    28    25    1
    96    60    62   ar
    97   137   138    2
    98    24    25    1
    99    24    20   am
   100    22    19    1
   101    22    23    1
   102    19    20    1
   103   131   130    2
   104    25    26    1
   105    36    35    2
   106    20    21    2
   107    26    27    2
   108    35    34    1
   109   130   129    1
   110   132   129    1
   111   132   133    1
   112   117   116    1
   113   129   128    1
   114    33    34    1
   115   133   134    1
   116    34    37    1
   117   116   113    1
   118   121   120    2
   119   128   134    1
   120    37    38    1
   121    37    39    1
   122   113   112    1
   123   113   114    1
   124   124   126   ar
   125   124   123   ar
   126   120   119    1
   127   122   123    1
   128   122   119    1
   129   126   127   ar
   130   123   125   ar
   131   115   114    2
   132   119   118    1
   133   127   125   ar
