@<TRIPOS>MOLECULE
tmp/1t24A01.pdb
 95 90 0 0 0
SMALL
GASTEIGER

@<TRIPOS>ATOM
      1  N         21.6850    8.8630    1.0940 N.3    92  TRP92      -0.1241
      2  CA        22.2570    9.8060    2.0440 C.3    92  TRP92       0.1605
      3  C         21.1650   10.6610    2.6790 C.2    92  TRP92       0.2264
      4  O         20.3250   11.2600    1.9950 O.2    92  TRP92      -0.2867
      5  CB        23.2680   10.7120    1.3380 C.3    92  TRP92       0.0550
      6  CG        23.9090   11.6850    2.2610 C.ar   92  TRP92       0.0003
      7  CD1       24.9280   11.4420    3.1230 C.ar   92  TRP92       0.0946
      8  CD2       23.5430   13.0600    2.4510 C.ar   92  TRP92       0.0152
      9  NE1       25.2320   12.5800    3.8320 N.ar   92  TRP92      -0.2442
     10  CE2       24.4040   13.5910    3.4260 C.ar   92  TRP92       0.0810
     11  CE3       22.5990   13.9080    1.8670 C.ar   92  TRP92       0.0012
     12  CZ2       24.3340   14.9190    3.8410 C.ar   92  TRP92       0.0191
     13  CZ3       22.5230   15.2210    2.2870 C.ar   92  TRP92       0.0001
     14  CH2       23.3900   15.7160    3.2550 C.ar   92  TRP92       0.0015
     15  N         20.8350   13.2580    6.2920 N.3    94  ARG94      -0.1245
     16  CA        21.4300   13.8140    7.5000 C.3    94  ARG94       0.1563
     17  C         20.9350   13.1520    8.7860 C.2    94  ARG94       0.2260
     18  O         21.6820   13.0510    9.7490 O.2    94  ARG94      -0.2867
     19  CB        21.1500   15.3180    7.5620 C.3    94  ARG94       0.0307
     20  CG        21.7990   16.0940    6.4340 C.3    94  ARG94       0.0489
     21  CD        21.3020   17.5090    6.3750 C.3    94  ARG94       0.2205
     22  NE        21.7490   18.3700    5.2890 N.pl3  94  ARG94      -0.0865
     23  CZ        21.0450   18.6230    4.2050 C.cat  94  ARG94       0.5346
     24  NH1       19.9160   17.9770    3.9870 N.pl3  94  ARG94       0.1354
     25  NH2       21.4710   19.5110    3.3210 N.pl3  94  ARG94       0.1354
     26  N         22.9710   10.4490   10.6300 N.3    97  LEU97      -0.1245
     27  CA        24.1920   10.8130   11.3370 C.3    97  LEU97       0.1561
     28  C         23.9580   10.9820   12.8460 C.2    97  LEU97       0.2260
     29  O         24.9150   11.0300   13.6250 O.2    97  LEU97      -0.2867
     30  CB        24.7600   12.1000   10.7300 C.3    97  LEU97       0.0270
     31  CG        25.0030   11.9700    9.2180 C.3    97  LEU97       0.0019
     32  CD1       25.4930   13.2690    8.6270 C.3    97  LEU97       0.0001
     33  CD2       26.0130   10.8580    8.8870 C.3    97  LEU97       0.0001
     34  N         26.1520   17.4300   11.7650 N.3   126  ASN126     -0.1240
     35  CA        24.7530   17.0860   11.5370 C.3   126  ASN126      0.1653
     36  C         24.2550   15.9440   12.4210 C.2   126  ASN126      0.2266
     37  O         25.0640   15.1540   12.9050 O.2   126  ASN126     -0.2867
     38  CB        24.5450   16.7100   10.0760 C.3   126  ASN126      0.1155
     39  CG        24.1910   17.9060    9.2160 C.2   126  ASN126      0.2627
     40  OD1       23.4050   18.7610    9.6320 O.2   126  ASN126     -0.2716
     41  ND2       24.7440   17.9600    8.0040 N.am  126  ASN126     -0.0877
     42  N         24.1170   28.9090    4.3060 N.3   153  LEU153     -0.1245
     43  CA        24.4700   27.9280    3.2950 C.3   153  LEU153      0.1561
     44  C         23.2930   27.6030    2.3980 C.2   153  LEU153      0.2260
     45  O         23.4320   27.6230    1.1740 O.2   153  LEU153     -0.2867
     46  CB        25.0020   26.6510    3.9620 C.3   153  LEU153      0.0270
     47  CG        25.2960   25.5040    2.9970 C.3   153  LEU153      0.0019
     48  CD1       26.3920   25.8850    2.0240 C.3   153  LEU153      0.0001
     49  CD2       25.6990   24.2810    3.7840 C.3   153  LEU153      0.0001
     50  N         22.6640   28.9530   -1.9700 N.3   157  ARG157     -0.1245
     51  CA        22.2720   28.1560   -3.1170 C.3   157  ARG157      0.1563
     52  C         21.0710   28.7520   -3.8330 C.2   157  ARG157      0.2260
     53  O         21.1120   28.9960   -5.0360 O.2   157  ARG157     -0.2867
     54  CB        21.9930   26.7300   -2.6470 C.3   157  ARG157      0.0307
     55  CG        23.2990   26.0860   -2.1400 C.3   157  ARG157      0.0489
     56  CD        23.1200   24.9220   -1.1890 C.3   157  ARG157      0.2205
     57  NE        24.3940   24.2810   -0.9190 N.pl3 157  ARG157     -0.0865
     58  CZ        24.5900   23.3560    0.0080 C.cat 157  ARG157      0.5346
     59  NH1       25.7920   22.8180    0.1620 N.pl3 157  ARG157      0.1354
     60  NH2       23.5900   22.9660    0.7910 N.pl3 157  ARG157      0.1354
     61  N         17.7650   22.7970    9.0040 N.3   181  HIS181     -0.1241
     62  CA        18.6690   22.4980    7.9030 C.3   181  HIS181      0.1621
     63  C         18.5360   20.9950    7.6230 C.2   181  HIS181      0.2264
     64  O         19.1980   20.1640    8.2530 O.2   181  HIS181     -0.2867
     65  CB        20.1080   22.8720    8.2500 C.3   181  HIS181      0.0745
     66  CG        21.0960   22.5150    7.1780 C.ar  181  HIS181      0.0817
     67  ND1       21.1290   23.1510    5.9510 N.ar  181  HIS181     -0.2268
     68  CD2       22.0420   21.5480    7.1270 C.ar  181  HIS181      0.1154
     69  CE1       22.0650   22.5960    5.2020 C.ar  181  HIS181      0.1986
     70  NE2       22.6380   21.6260    5.8920 N.ar  181  HIS181     -0.2212
     71  N         22.7880   19.2690   -1.4120 N.3   224  ALA224     -0.1245
     72  CA        23.7450   18.4350   -0.6740 C.3   224  ALA224      0.1562
     73  C         23.7530   17.0210   -1.2600 C.2   224  ALA224      0.2260
     74  O         24.8040   16.4630   -1.5720 O.2   224  ALA224     -0.2867
     75  CB        23.3850   18.3930    0.7980 C.3   224  ALA224      0.0290
     76  N         30.3320   14.7990    0.4100 N.3   233  SER233     -0.1203
     77  CA        29.5960   15.7270    1.2640 C.3   233  SER233      0.2005
     78  C         30.2170   17.1020    1.0700 C.2   233  SER233      0.2460
     79  O         31.4190   17.2670    1.2690 O.2   233  SER233     -0.2732
     80  CB        29.7320   15.2780    2.7150 C.3   233  SER233      0.2103
     81  OG        28.8300   15.9800    3.5680 O.3   233  SER233     -0.2182
     82  N         29.4150   18.1060    0.6890 N.am  234  PRO234     -0.2728
     83  CA        29.9100   19.4570    0.3950 C.3   234  PRO234      0.1401
     84  C         30.7540   20.0620    1.4940 C.2   234  PRO234      0.2269
     85  O         30.4920   19.8500    2.6740 O.2   234  PRO234     -0.2865
     86  CB        28.6260   20.2830    0.2360 C.3   234  PRO234      0.0296
     87  CG        27.5900   19.2680   -0.1470 C.3   234  PRO234      0.0237
     88  CD        27.9620   18.0000    0.5010 C.3   234  PRO234      0.0939
     89  N         29.9310   25.3000    2.6000 N.3   238  PRO238     -0.2116
     90  CA        29.7800   25.2610    4.0550 C.3   238  PRO238      0.1372
     91  C         30.8700   26.0770    4.7560 C.2   238  PRO238      0.2244
     92  O         30.5680   26.9360    5.6020 O.2   238  PRO238     -0.2868
     93  CB        29.8840   23.7820    4.3710 C.3   238  PRO238      0.0268
     94  CG        29.2740   23.1380    3.1610 C.3   238  PRO238      0.0207
     95  CD        29.7760   23.9710    1.9960 C.3   238  PRO238      0.0892
@<TRIPOS>BOND
     1    53    52    2
     2    52    51    1
     3    51    54    1
     4    51    50    1
     5    54    55    1
     6    55    56    1
     7    74    73    2
     8    71    72    1
     9    73    72    1
    10    56    57    1
    11    57    58    2
    12    72    75    1
    13    87    86    1
    14    87    88    1
    15    58    59    1
    16    58    60    1
    17    86    83    1
    18    83    82    1
    19    83    84    1
    20    76    77    1
    21    88    82    1
    22    82    78   am
    23    78    77    1
    24    78    79    2
    25     1     2    1
    26    45    44    2
    27    77    80    1
    28     5     2    1
    29     5     6    1
    30    84    85    2
    31    11    13   ar
    32    11     8   ar
    33     4     3    2
    34    95    89    1
    35    95    94    1
    36    48    47    1
    37     2     3    1
    38     6     8   ar
    39     6     7   ar
    40    13    14   ar
    41    44    43    1
    42     8    10   ar
    43    89    90    1
    44    80    81    1
    45    47    49    1
    46    47    46    1
    47     7     9   ar
    48    94    93    1
    49    14    12   ar
    50    43    46    1
    51    43    42    1
    52    25    23    1
    53    10     9   ar
    54    10    12   ar
    55    24    23    1
    56    90    93    1
    57    90    91    1
    58    23    22    2
    59    91    92    2
    60    69    70   ar
    61    69    67   ar
    62    22    21    1
    63    70    68   ar
    64    67    66   ar
    65    15    16    1
    66    21    20    1
    67    20    19    1
    68    68    66   ar
    69    66    65    1
    70    16    19    1
    71    16    17    1
    72    63    62    1
    73    63    64    2
    74    62    65    1
    75    62    61    1
    76    41    39   am
    77    32    31    1
    78    17    18    2
    79    33    31    1
    80    39    40    2
    81    39    38    1
    82    31    30    1
    83    38    35    1
    84    26    27    1
    85    30    27    1
    86    27    28    1
    87    35    34    1
    88    35    36    1
    89    36    37    2
    90    28    29    2
