@<TRIPOS>MOLECULE
tmp/1t25A01.pdb
 103 97 0 0 0
SMALL
GASTEIGER

@<TRIPOS>ATOM
      1  N         36.1480   20.8710    5.7480 N.3    14  ILE14      -0.1245
      2  CA        35.6720   22.2290    6.0590 C.3    14  ILE14       0.1561
      3  C         36.7230   22.9840    6.8970 C.2    14  ILE14       0.2260
      4  O         36.9950   24.1650    6.6400 O.2    14  ILE14      -0.2867
      5  CB        34.2710   22.2240    6.7550 C.3    14  ILE14       0.0252
      6  CG1       33.2010   21.7100    5.8030 C.3    14  ILE14       0.0019
      7  CG2       33.8770   23.6090    7.2440 C.3    14  ILE14       0.0019
      8  CD1       31.8380   21.4320    6.4420 C.3    14  ILE14       0.0001
      9  N         21.8520    9.1280    1.1360 N.3    92  TRP92      -0.1241
     10  CA        22.4830   10.0400    2.0960 C.3    92  TRP92       0.1605
     11  C         21.4400   10.9400    2.7590 C.2    92  TRP92       0.2264
     12  O         20.6900   11.6480    2.0780 O.2    92  TRP92      -0.2867
     13  CB        23.5370   10.9270    1.4060 C.3    92  TRP92       0.0550
     14  CG        24.2140   11.9320    2.3190 C.ar   92  TRP92       0.0003
     15  CD1       25.2960   11.7190    3.1370 C.ar   92  TRP92       0.0946
     16  CD2       23.8510   13.3080    2.4950 C.ar   92  TRP92       0.0152
     17  NE1       25.6200   12.8750    3.8130 N.ar   92  TRP92      -0.2442
     18  CE2       24.7530   13.8690    3.4350 C.ar   92  TRP92       0.0810
     19  CE3       22.8510   14.1270    1.9530 C.ar   92  TRP92       0.0012
     20  CZ2       24.6830   15.2020    3.8350 C.ar   92  TRP92       0.0191
     21  CZ3       22.7770   15.4480    2.3530 C.ar   92  TRP92       0.0001
     22  CH2       23.6920   15.9770    3.2840 C.ar   92  TRP92       0.0015
     23  N         20.9920   13.5650    6.3910 N.3    94  ARG94      -0.1245
     24  CA        21.6060   14.1620    7.5840 C.3    94  ARG94       0.1563
     25  C         21.0950   13.5190    8.8800 C.2    94  ARG94       0.2260
     26  O         21.8290   13.4420    9.8750 O.2    94  ARG94      -0.2867
     27  CB        21.3470   15.6690    7.6280 C.3    94  ARG94       0.0307
     28  CG        22.0400   16.4610    6.5350 C.3    94  ARG94       0.0489
     29  CD        21.5380   17.8780    6.4730 C.3    94  ARG94       0.2205
     30  NE        22.0580   18.7220    5.3980 N.pl3  94  ARG94      -0.0865
     31  CZ        21.3890   19.0170    4.2760 C.cat  94  ARG94       0.5346
     32  NH1       20.2020   18.4740    4.0410 N.pl3  94  ARG94       0.1354
     33  NH2       21.9210   19.8400    3.3720 N.pl3  94  ARG94       0.1354
     34  N         23.0440   10.8290   10.7750 N.3    97  LEU97      -0.1245
     35  CA        24.2750   11.2150   11.4650 C.3    97  LEU97       0.1561
     36  C         24.0330   11.4550   12.9670 C.2    97  LEU97       0.2260
     37  O         24.9540   11.7800   13.7160 O.2    97  LEU97      -0.2867
     38  CB        24.8750   12.4730   10.8220 C.3    97  LEU97       0.0270
     39  CG        25.2380   12.3580    9.3380 C.3    97  LEU97       0.0019
     40  CD1       25.6550   13.7160    8.7680 C.3    97  LEU97       0.0001
     41  CD2       26.3410   11.3150    9.1020 C.3    97  LEU97       0.0001
     42  N         26.3420   17.8160   11.8710 N.3   126  ASN126     -0.1240
     43  CA        24.9340   17.4610   11.6260 C.3   126  ASN126      0.1653
     44  C         24.3550   16.3390   12.5060 C.2   126  ASN126      0.2266
     45  O         25.1130   15.4780   12.9660 O.2   126  ASN126     -0.2867
     46  CB        24.7230   17.1150   10.1470 C.3   126  ASN126      0.1155
     47  CG        24.4150   18.3470    9.2910 C.2   126  ASN126      0.2627
     48  OD1       24.9640   18.5050    8.1870 O.2   126  ASN126     -0.2716
     49  ND2       23.5610   19.2330    9.8030 N.am  126  ASN126     -0.0877
     50  N         24.3350   29.4280    4.3820 N.3   153  LEU153     -0.1245
     51  CA        24.6810   28.4570    3.3530 C.3   153  LEU153      0.1561
     52  C         23.4920   28.1370    2.4530 C.2   153  LEU153      0.2260
     53  O         23.6180   28.2530    1.2340 O.2   153  LEU153     -0.2867
     54  CB        25.2600   27.1750    3.9870 C.3   153  LEU153      0.0270
     55  CG        25.4610   25.9800    3.0320 C.3   153  LEU153      0.0019
     56  CD1       26.5320   26.2830    1.9840 C.3   153  LEU153      0.0001
     57  CD2       25.8610   24.7250    3.7840 C.3   153  LEU153      0.0001
     58  N         22.7630   29.4190   -2.0130 N.3   157  ARG157     -0.1245
     59  CA        22.4000   28.6160   -3.1620 C.3   157  ARG157      0.1563
     60  C         21.1980   29.2260   -3.8780 C.2   157  ARG157      0.2260
     61  O         21.2200   29.4440   -5.1040 O.2   157  ARG157     -0.2867
     62  CB        22.1530   27.1670   -2.6930 C.3   157  ARG157      0.0307
     63  CG        23.4710   26.5760   -2.0990 C.3   157  ARG157      0.0489
     64  CD        23.3390   25.4130   -1.1620 C.3   157  ARG157      0.2205
     65  NE        24.6260   24.7390   -0.9470 N.pl3 157  ARG157     -0.0865
     66  CZ        24.8160   23.7680   -0.0540 C.cat 157  ARG157      0.5346
     67  NH1       26.0060   23.2030    0.0740 N.pl3 157  ARG157      0.1354
     68  NH2       23.8210   23.3930    0.7380 N.pl3 157  ARG157      0.1354
     69  N         18.0460   23.4010    9.1430 N.3   181  HIS181     -0.1241
     70  CA        18.9060   23.0430    8.0150 C.3   181  HIS181      0.1621
     71  C         18.7060   21.5500    7.7370 C.2   181  HIS181      0.2264
     72  O         19.1950   20.6900    8.4950 O.2   181  HIS181     -0.2867
     73  CB        20.3680   23.3010    8.3640 C.3   181  HIS181      0.0745
     74  CG        21.3440   22.8920    7.2960 C.ar  181  HIS181      0.0817
     75  ND1       21.4160   23.5250    6.0720 N.ar  181  HIS181     -0.2268
     76  CD2       22.3000   21.9310    7.2800 C.ar  181  HIS181      0.1154
     77  CE1       22.3670   22.9640    5.3410 C.ar  181  HIS181      0.1986
     78  NE2       22.9160   21.9870    6.0460 N.ar  181  HIS181     -0.2212
     79  N         23.0620   19.5950   -1.5920 N.3   224  ALA224     -0.1245
     80  CA        24.0910   18.8320   -0.9260 C.3   224  ALA224      0.1562
     81  C         24.0800   17.3940   -1.5310 C.2   224  ALA224      0.2260
     82  O         25.1320   16.8260   -1.8910 O.2   224  ALA224     -0.2867
     83  CB        23.8470   18.8480    0.5650 C.3   224  ALA224      0.0290
     84  N         30.5650   15.2280    0.2680 N.3   233  SER233     -0.1203
     85  CA        29.8340   16.1400    1.1520 C.3   233  SER233      0.2005
     86  C         30.4900   17.5280    0.9700 C.2   233  SER233      0.2460
     87  O         31.6750   17.6820    1.2600 O.2   233  SER233     -0.2732
     88  CB        29.9240   15.6650    2.6100 C.3   233  SER233      0.2103
     89  OG        29.1860   16.4900    3.5340 O.3   233  SER233     -0.2182
     90  N         29.7300   18.5400    0.5090 N.am  234  PRO234     -0.2728
     91  CA        30.2410   19.9120    0.2030 C.3   234  PRO234      0.1401
     92  C         31.0830   20.5180    1.3090 C.2   234  PRO234      0.2269
     93  O         30.7500   20.2710    2.4560 O.2   234  PRO234     -0.2865
     94  CB        28.9610   20.7480    0.0590 C.3   234  PRO234      0.0296
     95  CG        27.8900   19.7660   -0.2700 C.3   234  PRO234      0.0237
     96  CD        28.2740   18.4550    0.3240 C.3   234  PRO234      0.0939
     97  N         30.1860   25.8610    2.5680 N.3   238  PRO238     -0.2116
     98  CA        30.0270   25.7840    4.0190 C.3   238  PRO238      0.1372
     99  C         31.1080   26.5950    4.7710 C.2   238  PRO238      0.2244
    100  O         30.7670   27.4310    5.6480 O.2   238  PRO238     -0.2868
    101  CB        30.1100   24.2880    4.2940 C.3   238  PRO238      0.0268
    102  CG        29.5390   23.6300    3.0810 C.3   238  PRO238      0.0207
    103  CD        30.0770   24.5440    1.9210 C.3   238  PRO238      0.0892
@<TRIPOS>BOND
     1    61    60    2
     2    60    59    1
     3    59    62    1
     4    59    58    1
     5    62    63    1
     6    63    64    1
     7    82    81    2
     8    79    80    1
     9    81    80    1
    10    64    65    1
    11    65    66    2
    12    80    83    1
    13    95    94    1
    14    95    96    1
    15    66    67    1
    16    66    68    1
    17    94    91    1
    18    91    90    1
    19    91    92    1
    20    84    85    1
    21    96    90    1
    22    90    86   am
    23    86    85    1
    24    86    87    2
    25     9    10    1
    26    85    88    1
    27    53    52    2
    28    92    93    2
    29    13    10    1
    30    13    14    1
    31   103    97    1
    32   103   102    1
    33    19    21   ar
    34    19    16   ar
    35    56    55    1
    36    12    11    2
    37    10    11    1
    38    14    16   ar
    39    14    15   ar
    40    21    22   ar
    41    52    51    1
    42    16    18   ar
    43    97    98    1
    44    88    89    1
    45    55    57    1
    46    55    54    1
    47   102   101    1
    48    15    17   ar
    49    22    20   ar
    50    51    54    1
    51    51    50    1
    52    33    31    1
    53    18    17   ar
    54    18    20   ar
    55    98   101    1
    56    98    99    1
    57    32    31    1
    58    31    30    2
    59    99   100    2
    60    77    78   ar
    61    77    75   ar
    62    30    29    1
    63     1     2    1
    64     6     8    1
    65     6     5    1
    66    78    76   ar
    67     2     5    1
    68     2     3    1
    69    75    74   ar
    70    23    24    1
    71    29    28    1
    72    28    27    1
    73     4     3    2
    74     5     7    1
    75    76    74   ar
    76    74    73    1
    77    24    27    1
    78    24    25    1
    79    71    70    1
    80    71    72    2
    81    70    73    1
    82    70    69    1
    83    48    47    2
    84    40    39    1
    85    25    26    2
    86    41    39    1
    87    47    49   am
    88    47    46    1
    89    39    38    1
    90    46    43    1
    91    34    35    1
    92    38    35    1
    93    35    36    1
    94    43    42    1
    95    43    44    1
    96    44    45    2
    97    36    37    2
