@<TRIPOS>MOLECULE
tmp/1t26A01.pdb
 102 96 0 0 0
SMALL
GASTEIGER

@<TRIPOS>ATOM
      1  N         30.2700   12.1170    8.4130 N.3    81  THR81      -0.1218
      2  CA        29.6770   12.7440    7.2350 C.3    81  THR81       0.1862
      3  C         28.6400   11.8210    6.5930 C.2    81  THR81       0.2287
      4  O         27.7410   12.2710    5.8750 O.2    81  THR81      -0.2866
      5  CB        30.6460   13.3880    6.4350 C.3    81  THR81       0.1770
      6  OG1       29.9940   14.2050    5.4550 O.3    81  THR81      -0.2211
      7  CG2       31.3210   12.2130    5.7260 C.3    81  THR81       0.0375
      8  N         21.2200    9.3790    1.4230 N.3    91  TRP91      -0.1241
      9  CA        21.9680   10.1050    2.4530 C.3    91  TRP91       0.1605
     10  C         21.0180   10.9090    3.4050 C.2    91  TRP91       0.2264
     11  O         20.4300   11.8950    2.9660 O.2    91  TRP91      -0.2867
     12  CB        22.9760   10.9470    1.6470 C.3    91  TRP91       0.0550
     13  CG        23.8390   11.9180    2.3310 C.ar   91  TRP91       0.0003
     14  CD1       24.9970   11.6720    3.0130 C.ar   91  TRP91       0.0946
     15  CD2       23.6650   13.3280    2.3300 C.ar   91  TRP91       0.0152
     16  NE1       25.5290   12.8530    3.4750 N.ar   91  TRP91      -0.2442
     17  CE2       24.7280   13.8870    3.0650 C.ar   91  TRP91       0.0810
     18  CE3       22.6950   14.1830    1.7980 C.ar   91  TRP91       0.0012
     19  CZ2       24.8470   15.2560    3.2800 C.ar   91  TRP91       0.0191
     20  CZ3       22.8120   15.5310    2.0100 C.ar   91  TRP91       0.0001
     21  CH2       23.8790   16.0600    2.7450 C.ar   91  TRP91       0.0015
     22  N         20.8530   13.5390    6.3980 N.3    93  ARG93      -0.1245
     23  CA        21.4780   14.0990    7.5910 C.3    93  ARG93       0.1563
     24  C         20.9620   13.4200    8.8580 C.2    93  ARG93       0.2260
     25  O         21.6650   13.3410    9.8680 O.2    93  ARG93      -0.2867
     26  CB        21.2150   15.6040    7.6730 C.3    93  ARG93       0.0307
     27  CG        21.7470   16.4150    6.4990 C.3    93  ARG93       0.0489
     28  CD        21.3230   17.8750    6.5450 C.3    93  ARG93       0.2205
     29  NE        21.8220   18.6730    5.4280 N.pl3  93  ARG93      -0.0865
     30  CZ        21.1600   18.8580    4.2930 C.cat  93  ARG93       0.5346
     31  NH1       19.9800   18.2830    4.1100 N.pl3  93  ARG93       0.1354
     32  NH2       21.6790   19.6120    3.3360 N.pl3  93  ARG93       0.1354
     33  N         23.0100   10.7340   10.5410 N.3    96  LEU96      -0.1245
     34  CA        24.2550   11.1220   11.2020 C.3    96  LEU96       0.1561
     35  C         24.0460   11.2820   12.7040 C.2    96  LEU96       0.2260
     36  O         25.0010   11.3890   13.4730 O.2    96  LEU96      -0.2867
     37  CB        24.7910   12.4240   10.6060 C.3    96  LEU96       0.0270
     38  CG        25.0520   12.4030    9.1020 C.3    96  LEU96       0.0019
     39  CD1       25.5810   13.7450    8.6260 C.3    96  LEU96       0.0001
     40  CD2       26.0210   11.2870    8.7580 C.3    96  LEU96       0.0001
     41  N         26.0260   17.7120   11.7500 N.3   125  ASN125     -0.1240
     42  CA        24.6160   17.3830   11.5090 C.3   125  ASN125      0.1653
     43  C         24.0510   16.2420   12.3610 C.2   125  ASN125      0.2266
     44  O         24.8060   15.3820   12.8150 O.2   125  ASN125     -0.2867
     45  CB        24.3680   17.1090   10.0240 C.3   125  ASN125      0.1155
     46  CG        24.1380   18.3880    9.2300 C.2   125  ASN125      0.2627
     47  OD1       24.6960   18.5810    8.1350 O.2   125  ASN125     -0.2716
     48  ND2       23.3060   19.2660    9.7720 N.am  125  ASN125     -0.0877
     49  N         24.0820   29.2100    4.4190 N.3   152  LEU152     -0.1245
     50  CA        24.4500   28.2170    3.4050 C.3   152  LEU152      0.1561
     51  C         23.2720   27.9020    2.4890 C.2   152  LEU152      0.2260
     52  O         23.4100   27.9750    1.2670 O.2   152  LEU152     -0.2867
     53  CB        24.9720   26.9330    4.0530 C.3   152  LEU152      0.0270
     54  CG        25.2580   25.7670    3.0880 C.3   152  LEU152      0.0019
     55  CD1       26.3240   26.1520    2.0740 C.3   152  LEU152      0.0001
     56  CD2       25.7020   24.5370    3.8560 C.3   152  LEU152      0.0001
     57  N         22.5850   29.1810   -2.0390 N.3   156  ARG156     -0.1245
     58  CA        22.2290   28.3870   -3.2040 C.3   156  ARG156      0.1563
     59  C         21.0240   29.0000   -3.9040 C.2   156  ARG156      0.2260
     60  O         21.0580   29.2460   -5.1150 O.2   156  ARG156     -0.2867
     61  CB        21.9910   26.9370   -2.7800 C.3   156  ARG156      0.0307
     62  CG        23.3100   26.3120   -2.2910 C.3   156  ARG156      0.0489
     63  CD        23.1930   25.3190   -1.1860 C.3   156  ARG156      0.2205
     64  NE        24.4640   24.6170   -0.9840 N.pl3 156  ARG156     -0.0865
     65  CZ        24.6280   23.6620   -0.0770 C.cat 156  ARG156      0.5346
     66  NH1       23.6170   23.3340    0.7130 N.pl3 156  ARG156      0.1354
     67  NH2       25.7970   23.0600    0.0640 N.pl3 156  ARG156      0.1354
     68  N         17.7900   23.2520    9.0960 N.3   180  HIS180     -0.1241
     69  CA        18.7020   22.9060    8.0050 C.3   180  HIS180      0.1621
     70  C         18.5730   21.4090    7.7190 C.2   180  HIS180      0.2264
     71  O         19.0600   20.5660    8.4880 O.2   180  HIS180     -0.2867
     72  CB        20.1430   23.2220    8.3980 C.3   180  HIS180      0.0745
     73  CG        21.1550   22.8760    7.3450 C.ar  180  HIS180      0.0817
     74  ND1       21.2150   23.5250    6.1290 N.ar  180  HIS180     -0.2268
     75  CD2       22.1600   21.9670    7.3360 C.ar  180  HIS180      0.1154
     76  CE1       22.2100   23.0260    5.4140 C.ar  180  HIS180      0.1986
     77  NE2       22.7990   22.0780    6.1240 N.ar  180  HIS180     -0.2212
     78  N         22.8130   19.4740   -1.5340 N.3   223  ALA223     -0.1245
     79  CA        23.8170   18.6140   -0.9080 C.3   223  ALA223      0.1562
     80  C         23.8060   17.2530   -1.6000 C.2   223  ALA223      0.2260
     81  O         24.8560   16.6910   -1.9240 O.2   223  ALA223     -0.2867
     82  CB        23.5470   18.4650    0.5780 C.3   223  ALA223      0.0290
     83  N         30.5440   15.1280   -0.0120 N.3   232  SER232     -0.1203
     84  CA        29.8550   16.0370    0.8840 C.3   232  SER232      0.2005
     85  C         30.3650   17.4470    0.5880 C.2   232  SER232      0.2460
     86  O         31.5640   17.6450    0.4080 O.2   232  SER232     -0.2732
     87  CB        30.1150   15.6470    2.3430 C.3   232  SER232      0.2103
     88  OG        29.2100   16.2800    3.2360 O.3   232  SER232     -0.2182
     89  N         29.4520   18.4080    0.4930 N.am  233  PRO233     -0.2728
     90  CA        29.8110   19.8140    0.2510 C.3   233  PRO233      0.1401
     91  C         30.7300   20.3380    1.3450 C.2   233  PRO233      0.2269
     92  O         30.4950   20.0430    2.5090 O.2   233  PRO233     -0.2865
     93  CB        28.4600   20.5320    0.3170 C.3   233  PRO233      0.0296
     94  CG        27.4620   19.4750   -0.0200 C.3   233  PRO233      0.0237
     95  CD        27.9960   18.2130    0.5880 C.3   233  PRO233      0.0939
     96  N         29.8860   25.6000    2.5420 N.3   237  PRO237     -0.2116
     97  CA        29.6950   25.5510    3.9990 C.3   237  PRO237      0.1372
     98  C         30.7850   26.3550    4.7300 C.2   237  PRO237      0.2244
     99  O         30.4870   27.1860    5.6080 O.2   237  PRO237     -0.2868
    100  CB        29.7930   24.0520    4.3090 C.3   237  PRO237      0.0268
    101  CG        29.2820   23.3800    3.0540 C.3   237  PRO237      0.0207
    102  CD        29.8130   24.2650    1.9160 C.3   237  PRO237      0.0892
@<TRIPOS>BOND
     1    60    59    2
     2    59    58    1
     3    58    61    1
     4    58    57    1
     5    61    62    1
     6    62    63    1
     7    81    80    2
     8    80    79    1
     9    78    79    1
    10    63    64    1
    11    64    65    2
    12    79    82    1
    13    65    67    1
    14    65    66    1
    15    94    93    1
    16    94    95    1
    17    83    84    1
    18    90    93    1
    19    90    89    1
    20    90    91    1
    21    86    85    2
    22    89    85   am
    23    89    95    1
    24    85    84    1
    25    84    87    1
    26    52    51    2
    27    91    92    2
    28     8     9    1
    29    12    13    1
    30    12     9    1
    31    18    20   ar
    32    18    15   ar
    33   102    96    1
    34   102   101    1
    35    20    21   ar
    36    55    54    1
    37    15    13   ar
    38    15    17   ar
    39    13    14   ar
    40    87    88    1
    41     9    10    1
    42    51    50    1
    43    96    97    1
    44    21    19   ar
    45    11    10    2
    46    14    16   ar
    47   101   100    1
    48    17    19   ar
    49    17    16   ar
    50    54    56    1
    51    54    53    1
    52    32    30    1
    53    50    53    1
    54    50    49    1
    55    97   100    1
    56    97    98    1
    57    31    30    1
    58    30    29    2
    59    98    99    2
    60    76    77   ar
    61    76    74   ar
    62    29    28    1
    63     6     5    1
    64     7     5    1
    65     4     3    2
    66    77    75   ar
    67    74    73   ar
    68    22    23    1
    69     5     2    1
    70    27    28    1
    71    27    26    1
    72     3     2    1
    73     2     1    1
    74    75    73   ar
    75    73    72    1
    76    23    26    1
    77    23    24    1
    78    70    69    1
    79    70    71    2
    80    69    72    1
    81    69    68    1
    82    47    46    2
    83    39    38    1
    84    40    38    1
    85    24    25    2
    86    38    37    1
    87    46    48   am
    88    46    45    1
    89    45    42    1
    90    33    34    1
    91    37    34    1
    92    34    35    1
    93    42    41    1
    94    42    43    1
    95    43    44    2
    96    35    36    2
