@<TRIPOS>MOLECULE
tmp/1t2fC01.pdb
 108 100 0 0 0
SMALL
GASTEIGER

@<TRIPOS>ATOM
      1  N         67.2970  137.0790   43.8960 N.3    99  ARG99      -0.1231
      2  CA        66.4340  137.9490   44.7050 C.3    99  ARG99       0.1694
      3  C         67.2260  138.8750   45.6180 C.2    99  ARG99       0.2591
      4  O         68.3940  138.6670   45.8240 O.2    99  ARG99      -0.2718
      5  CB        65.5010  137.1050   45.5780 C.3    99  ARG99       0.0321
      6  CG        66.1310  136.4620   46.8040 C.3    99  ARG99       0.0489
      7  CD        65.3950  135.2030   47.2350 C.3    99  ARG99       0.2205
      8  NE        65.8960  134.6180   48.4760 N.pl3  99  ARG99      -0.0865
      9  CZ        65.4750  133.4550   48.9460 C.cat  99  ARG99       0.5346
     10  NH1       64.5530  132.7870   48.2760 N.pl3  99  ARG99       0.1354
     11  NH2       65.9490  132.9360   50.0740 N.pl3  99  ARG99       0.1354
     12  N         66.5820  139.8850   46.1890 N.am  100  GLN100     -0.1979
     13  CA        67.2910  140.8680   47.0210 C.3   100  GLN100      0.1601
     14  C         67.9020  140.1970   48.2610 C.2   100  GLN100      0.2287
     15  O         67.2050  139.4660   48.9520 O.2   100  GLN100     -0.2864
     16  CB        66.3500  141.9900   47.5050 C.3   100  GLN100      0.0394
     17  CG        65.3710  142.6320   46.4740 C.3   100  GLN100      0.0908
     18  CD        64.1660  143.3290   47.1690 C.2   100  GLN100      0.2608
     19  OE1       64.3670  144.3100   47.8950 O.2   100  GLN100     -0.2717
     20  NE2       62.9400  142.8130   46.9610 N.am  100  GLN100     -0.0878
     21  N         65.7270  146.2810   44.7430 N.3   106  ARG106     -0.1245
     22  CA        65.3210  145.5030   43.5950 C.3   106  ARG106      0.1563
     23  C         66.2360  145.8700   42.4390 C.2   106  ARG106      0.2260
     24  O         66.8070  144.9930   41.8400 O.2   106  ARG106     -0.2867
     25  CB        63.8720  145.7750   43.2110 C.3   106  ARG106      0.0307
     26  CG        62.8410  145.5910   44.2980 C.3   106  ARG106      0.0489
     27  CD        61.4540  145.6750   43.7580 C.3   106  ARG106      0.2205
     28  NE        60.4860  145.2980   44.7620 N.pl3 106  ARG106     -0.0865
     29  CZ        60.1030  146.0740   45.7650 C.cat 106  ARG106      0.5346
     30  NH1       60.5880  147.3080   45.8910 N.pl3 106  ARG106      0.1354
     31  NH2       59.2170  145.6140   46.6540 N.pl3 106  ARG106      0.1354
     32  N         62.5670  140.4880   39.5490 N.3   138  ASN138     -0.1240
     33  CA        62.8300  141.8710   39.8060 C.3   138  ASN138      0.1653
     34  C         63.8770  142.4960   38.8650 C.2   138  ASN138      0.2266
     35  O         64.5590  141.7720   38.1290 O.2   138  ASN138     -0.2867
     36  CB        63.0790  142.0930   41.2800 C.3   138  ASN138      0.1155
     37  CG        61.7660  142.3780   42.0560 C.2   138  ASN138      0.2627
     38  OD1       60.9500  143.2170   41.6730 O.2   138  ASN138     -0.2716
     39  ND2       61.5740  141.6650   43.1330 N.am  138  ASN138     -0.0877
     40  N         50.2830  143.7340   43.5930 N.3   165  LEU165     -0.1245
     41  CA        50.6500  143.3910   44.9550 C.3   165  LEU165      0.1561
     42  C         50.7370  144.6640   45.8220 C.2   165  LEU165      0.2260
     43  O         50.1120  144.6780   46.8820 O.2   165  LEU165     -0.2867
     44  CB        51.9230  142.5590   44.9990 C.3   165  LEU165      0.0270
     45  CG        52.5620  142.5110   46.3760 C.3   165  LEU165      0.0019
     46  CD1       51.6510  141.8700   47.3670 C.3   165  LEU165      0.0001
     47  CD2       53.8660  141.7710   46.2990 C.3   165  LEU165      0.0001
     48  N         48.5650  145.2950   49.4080 N.3   169  ARG169     -0.1245
     49  CA        49.2800  145.7880   50.5850 C.3   169  ARG169      0.1563
     50  C         48.6330  147.0510   51.0980 C.2   169  ARG169      0.2260
     51  O         48.4710  147.1930   52.3190 O.2   169  ARG169     -0.2867
     52  CB        50.7020  146.1310   50.2430 C.3   169  ARG169      0.0307
     53  CG        51.5830  144.9490   50.2630 C.3   169  ARG169      0.0489
     54  CD        53.0640  145.2430   49.9950 C.3   169  ARG169      0.2205
     55  NE        53.8120  144.0110   50.1940 N.pl3 169  ARG169     -0.0865
     56  CZ        54.6550  143.4730   49.3350 C.cat 169  ARG169      0.5346
     57  NH1       54.9440  144.0360   48.1900 N.pl3 169  ARG169      0.1354
     58  NH2       55.2220  142.3320   49.6440 N.pl3 169  ARG169      0.1354
     59  N         56.5740  149.4560   41.0530 N.3   193  HIS193     -0.1241
     60  CA        56.5000  148.5200   42.1590 C.3   193  HIS193      0.1621
     61  C         57.7370  148.7660   43.0680 C.2   193  HIS193      0.2264
     62  O         58.8880  148.5320   42.6460 O.2   193  HIS193     -0.2867
     63  CB        56.4710  147.1080   41.5610 C.3   193  HIS193      0.0745
     64  CG        56.6430  146.0050   42.5490 C.ar  193  HIS193      0.0817
     65  ND1       55.8550  145.8810   43.6640 N.ar  193  HIS193     -0.2268
     66  CD2       57.4950  144.9570   42.5720 C.ar  193  HIS193      0.1154
     67  CE1       56.2150  144.8080   44.3390 C.ar  193  HIS193      0.1986
     68  NE2       57.2060  144.2240   43.6950 N.ar  193  HIS193     -0.2212
     69  N         58.0460  145.3110   51.5070 N.3   238  ALA238     -0.1245
     70  CA        58.9170  144.2610   50.9440 C.3   238  ALA238      0.1562
     71  C         60.1930  144.0280   51.8040 C.2   238  ALA238      0.2260
     72  O         60.5050  142.8920   52.1740 O.2   238  ALA238     -0.2867
     73  CB        59.2690  144.5840   49.4630 C.3   238  ALA238      0.0290
     74  N         61.4650  140.8320   54.5260 N.3   242  ILE242     -0.1245
     75  CA        62.7000  140.1510   54.1890 C.3   242  ILE242      0.1561
     76  C         63.5780  140.0540   55.4410 C.2   242  ILE242      0.2260
     77  O         64.2380  139.0560   55.7000 O.2   242  ILE242     -0.2867
     78  CB        63.3840  140.8780   53.0060 C.3   242  ILE242      0.0252
     79  CG1       62.5910  140.6470   51.7200 C.3   242  ILE242      0.0019
     80  CG2       64.7760  140.3580   52.7890 C.3   242  ILE242      0.0019
     81  CD1       62.9160  141.6050   50.6160 C.3   242  ILE242      0.0001
     82  N         62.2660  136.4130   52.3140 N.3   247  TYR247     -0.1227
     83  CA        61.6810  136.7360   50.9760 C.3   247  TYR247      0.1736
     84  C         60.1930  136.9850   51.0660 C.2   247  TYR247      0.2596
     85  O         59.6350  136.7470   52.1190 O.2   247  TYR247     -0.2718
     86  CB        61.8490  135.5260   50.0620 C.3   247  TYR247      0.0548
     87  CG        61.4170  134.2180   50.7350 C.ar  247  TYR247     -0.0200
     88  CD1       60.0850  133.7340   50.6790 C.ar  247  TYR247     -0.0009
     89  CD2       62.3200  133.5030   51.4520 C.ar  247  TYR247     -0.0009
     90  CE1       59.7270  132.5430   51.3180 C.ar  247  TYR247      0.0417
     91  CE2       61.9590  132.3620   52.0940 C.ar  247  TYR247      0.0417
     92  CZ        60.6990  131.8560   52.0330 C.ar  247  TYR247      0.1957
     93  OH        60.5140  130.6550   52.7290 O.3   247  TYR247     -0.2866
     94  N         59.5320  137.4270   49.9890 N.am  248  THR248     -0.1953
     95  CA        58.0310  137.3610   49.9370 C.3   248  THR248      0.1897
     96  C         57.4630  136.3640   48.8850 C.2   248  THR248      0.2313
     97  O         58.0920  136.0740   47.8730 O.2   248  THR248     -0.2863
     98  CB        57.2770  138.8220   49.8650 C.3   248  THR248      0.1794
     99  OG1       56.9360  139.2240   48.5170 O.3   248  THR248     -0.2208
    100  CG2       58.1140  139.9260   50.3980 C.3   248  THR248      0.0378
    101  N         52.5440  137.6050   46.5470 N.3   252  ILE252     -0.1245
    102  CA        52.7840  137.7350   45.1310 C.3   252  ILE252      0.1561
    103  C         52.0570  136.5980   44.4540 C.2   252  ILE252      0.2260
    104  O         51.3910  136.8130   43.4710 O.2   252  ILE252     -0.2867
    105  CB        54.2830  137.8050   44.7490 C.3   252  ILE252      0.0252
    106  CG1       54.4340  138.3850   43.3400 C.3   252  ILE252      0.0019
    107  CG2       54.9260  136.4580   44.7260 C.3   252  ILE252      0.0019
    108  CD1       54.0900  139.8450   43.2450 C.3   252  ILE252      0.0001
@<TRIPOS>BOND
     1    35    34    2
     2    34    33    1
     3    32    33    1
     4    33    36    1
     5    59    60    1
     6    36    37    1
     7    63    60    1
     8    63    64    1
     9    38    37    2
    10    24    23    2
    11    37    39   am
    12    60    61    1
    13    23    22    1
    14    64    66   ar
    15    64    65   ar
    16    66    68   ar
    17    62    61    2
    18    25    22    1
    19    25    26    1
    20   108   106    1
    21   106   105    1
    22   104   103    2
    23    40    41    1
    24    22    21    1
    25    65    67   ar
    26    68    67   ar
    27    27    26    1
    28    27    28    1
    29     1     2    1
    30   103   102    1
    31     2     5    1
    32     2     3    1
    33   107   105    1
    34   105   102    1
    35    28    29    2
    36    41    44    1
    37    41    42    1
    38    44    45    1
    39   102   101    1
    40     5     6    1
    41     3     4    2
    42     3    12   am
    43    29    30    1
    44    29    31    1
    45    42    43    2
    46    12    13    1
    47    47    45    1
    48    45    46    1
    49    17    18    1
    50    17    16    1
    51     6     7    1
    52    20    18   am
    53    13    16    1
    54    13    14    1
    55    18    19    2
    56     7     8    1
    57    97    96    2
    58    57    56    1
    59    14    15    2
    60    10     9    1
    61     8     9    2
    62    99    98    1
    63    96    95    1
    64     9    11    1
    65    56    58    1
    66    56    55    2
    67    48    49    1
    68    73    70    1
    69    98    95    1
    70    98   100    1
    71    95    94    1
    72    94    84   am
    73    54    55    1
    74    54    53    1
    75    86    87    1
    76    86    83    1
    77    52    53    1
    78    52    49    1
    79    49    50    1
    80    81    79    1
    81    88    87   ar
    82    88    90   ar
    83    87    89   ar
    84    70    69    1
    85    70    71    1
    86    83    84    1
    87    83    82    1
    88    84    85    2
    89    50    51    2
    90    90    92   ar
    91    89    91   ar
    92    79    78    1
    93    71    72    2
    94    92    91   ar
    95    92    93    1
    96    80    78    1
    97    78    75    1
    98    75    74    1
    99    75    76    1
   100    76    77    2
