@<TRIPOS>MOLECULE
tmp/1t2sB00.pdb
 138 134 0 0 0
SMALL
GASTEIGER

@<TRIPOS>ATOM
      1  N         -0.4830   -8.0030    1.6650 N.3    44  TYR44      -0.1241
      2  CA        -1.2070   -6.8690    2.1860 C.3    44  TYR44       0.1605
      3  C         -1.8120   -7.2300    3.5290 C.2    44  TYR44       0.2264
      4  O         -2.6880   -8.0920    3.6180 O.2    44  TYR44      -0.2867
      5  CB        -2.2940   -6.4150    1.2100 C.3    44  TYR44       0.0534
      6  CG        -3.2040   -5.3590    1.7910 C.ar   44  TYR44      -0.0201
      7  CD1       -2.8030   -4.0340    1.8680 C.ar   44  TYR44      -0.0009
      8  CD2       -4.4550   -5.6970    2.2830 C.ar   44  TYR44      -0.0009
      9  CE1       -3.6280   -3.0710    2.4170 C.ar   44  TYR44       0.0417
     10  CE2       -5.2830   -4.7440    2.8390 C.ar   44  TYR44       0.0417
     11  CZ        -4.8680   -3.4330    2.9040 C.ar   44  TYR44       0.1957
     12  OH        -5.6910   -2.4830    3.4600 O.3    44  TYR44      -0.2866
     13  N         -4.0740   -6.0520    6.3630 N.3    46  PRO46      -0.2116
     14  CA        -5.1000   -5.1140    6.8120 C.3    46  PRO46       0.1372
     15  C         -4.8920   -4.7350    8.2730 C.2    46  PRO46       0.2244
     16  O         -4.7330   -5.6060    9.1280 O.2    46  PRO46      -0.2868
     17  CB        -6.4100   -5.8900    6.6380 C.3    46  PRO46       0.0268
     18  CG        -6.0820   -6.9980    5.6990 C.3    46  PRO46       0.0207
     19  CD        -4.6480   -7.3430    5.9680 C.3    46  PRO46       0.0892
     20  N         -8.5990  -10.5700    6.5260 N.3    53  ALA53      -0.1245
     21  CA        -7.5610  -11.5420    6.2010 C.3    53  ALA53       0.1562
     22  C         -6.5470  -10.9580    5.2210 C.2    53  ALA53       0.2260
     23  O         -6.9220  -10.3750    4.2050 O.2    53  ALA53      -0.2867
     24  CB        -8.1900  -12.8020    5.6290 C.3    53  ALA53       0.0290
     25  N         -3.8700  -10.6890    2.2720 N.3    55  ARG55      -0.1245
     26  CA        -3.7900  -11.3130    0.9560 C.3    55  ARG55       0.1563
     27  C         -2.5830  -10.7800    0.1910 C.2    55  ARG55       0.2260
     28  O         -2.2960   -9.5830    0.2300 O.2    55  ARG55      -0.2867
     29  CB        -5.0740  -11.0380    0.1690 C.3    55  ARG55       0.0307
     30  CG        -5.1010  -11.6770   -1.2100 C.3    55  ARG55       0.0489
     31  CD        -6.3570  -11.2970   -1.9780 C.3    55  ARG55       0.2205
     32  NE        -7.5740  -11.7980   -1.3380 N.pl3  55  ARG55      -0.0865
     33  CZ        -8.6810  -11.0750   -1.1660 C.cat  55  ARG55       0.5346
     34  NH1       -8.7210   -9.8060   -1.5530 N.pl3  55  ARG55       0.1354
     35  NH2       -9.7470  -11.6270   -0.6030 N.pl3  55  ARG55       0.1354
     36  N         -0.4820   -9.7320   -3.1280 N.3    57  TYR57      -0.1241
     37  CA        -0.7580   -9.1920   -4.4470 C.3    57  TYR57       0.1605
     38  C          0.5320   -9.0400   -5.2370 C.2    57  TYR57       0.2264
     39  O          1.5630   -8.6460   -4.6870 O.2    57  TYR57      -0.2867
     40  CB        -1.4610   -7.8350   -4.3450 C.3    57  TYR57       0.0534
     41  CG        -2.9150   -7.9050   -3.9260 C.ar   57  TYR57      -0.0201
     42  CD1       -3.9020   -8.2680   -4.8360 C.ar   57  TYR57      -0.0009
     43  CD2       -3.3040   -7.5940   -2.6280 C.ar   57  TYR57      -0.0009
     44  CE1       -5.2330   -8.3200   -4.4680 C.ar   57  TYR57       0.0417
     45  CE2       -4.6350   -7.6390   -2.2520 C.ar   57  TYR57       0.0417
     46  CZ        -5.5950   -8.0030   -3.1740 C.ar   57  TYR57       0.1957
     47  OH        -6.9210   -8.0490   -2.8020 O.3    57  TYR57      -0.2866
     48  N        -12.5450    7.5740   -4.3620 N.3    72  PHE72      -0.1241
     49  CA       -13.5210    6.6360   -4.8980 C.3    72  PHE72       0.1605
     50  C        -14.8880    6.9410   -4.3080 C.2    72  PHE72       0.2264
     51  O        -14.9850    7.4340   -3.1820 O.2    72  PHE72      -0.2867
     52  CB       -13.1090    5.1820   -4.6230 C.3    72  PHE72       0.0534
     53  CG       -12.9720    4.8270   -3.1660 C.ar   72  PHE72      -0.0203
     54  CD1      -11.7980    5.0890   -2.4810 C.ar   72  PHE72      -0.0042
     55  CD2      -14.0180    4.2140   -2.4880 C.ar   72  PHE72      -0.0042
     56  CE1      -11.6680    4.7540   -1.1460 C.ar   72  PHE72      -0.0003
     57  CE2      -13.8910    3.8760   -1.1530 C.ar   72  PHE72      -0.0003
     58  CZ       -12.7140    4.1470   -0.4830 C.ar   72  PHE72      -0.0000
     59  N         -8.3030    7.6380   -0.5240 N.3    81  ILE81      -0.1245
     60  CA        -7.8290    6.3640    0.0080 C.3    81  ILE81       0.1561
     61  C         -7.4410    6.5250    1.4780 C.2    81  ILE81       0.2260
     62  O         -7.8660    5.7530    2.3410 O.2    81  ILE81      -0.2867
     63  CB        -6.6100    5.8390   -0.7890 C.3    81  ILE81       0.0252
     64  CG1       -6.9000    5.8530   -2.2990 C.3    81  ILE81       0.0019
     65  CG2       -6.2330    4.4360   -0.3310 C.3    81  ILE81       0.0019
     66  CD1       -8.0720    4.9880   -2.7110 C.3    81  ILE81       0.0001
     67  N        -10.4100    6.8500    3.8940 N.3    84  TYR84      -0.1227
     68  CA       -11.1500    5.6170    4.1220 C.3    84  TYR84       0.1736
     69  C        -10.4860    4.7910    5.2190 C.2    84  TYR84       0.2595
     70  O        -11.1590    4.2590    6.1010 O.2    84  TYR84      -0.2718
     71  CB       -11.2620    4.7910    2.8380 C.3    84  TYR84       0.0548
     72  CG       -12.1380    3.5700    2.9960 C.ar   84  TYR84      -0.0200
     73  CD1      -13.5190    3.6940    3.0940 C.ar   84  TYR84      -0.0009
     74  CD2      -11.5870    2.2950    3.0670 C.ar   84  TYR84      -0.0009
     75  CE1      -14.3260    2.5850    3.2540 C.ar   84  TYR84       0.0417
     76  CE2      -12.3890    1.1830    3.2310 C.ar   84  TYR84       0.0417
     77  CZ       -13.7560    1.3320    3.3220 C.ar   84  TYR84       0.1957
     78  OH       -14.5570    0.2270    3.4930 O.3    84  TYR84      -0.2866
     79  N         -9.1630    4.7000    5.1660 N.am   85  PHE85      -0.1976
     80  CA        -8.4050    3.9880    6.1900 C.3    85  PHE85       0.1639
     81  C         -8.5070    4.7050    7.5310 C.2    85  PHE85       0.2290
     82  O         -8.6320    4.0700    8.5770 O.2    85  PHE85      -0.2864
     83  CB        -6.9390    3.8440    5.7780 C.3    85  PHE85       0.0560
     84  CG        -6.7140    2.7900    4.7320 C.ar   85  PHE85      -0.0200
     85  CD1       -7.0340    3.0260    3.4080 C.ar   85  PHE85      -0.0042
     86  CD2       -6.1890    1.5590    5.0800 C.ar   85  PHE85      -0.0042
     87  CE1       -6.8360    2.0540    2.4480 C.ar   85  PHE85      -0.0003
     88  CE2       -5.9880    0.5830    4.1260 C.ar   85  PHE85      -0.0003
     89  CZ        -6.3130    0.8300    2.8080 C.ar   85  PHE85      -0.0000
     90  N         -3.2330   -5.9970   -7.6460 N.3   103  GLY103     -0.1210
     91  CA        -4.5250   -6.5780   -7.9190 C.3   103  GLY103      0.1956
     92  C         -4.5880   -7.1560   -9.3120 C.2   103  GLY103      0.2612
     93  O         -4.4980   -8.3700   -9.4990 O.2   103  GLY103     -0.2717
     94  N         -4.7500   -6.2810  -10.2870 N.am  104  SER104     -0.1952
     95  CA        -4.7990   -6.6810  -11.6770 C.3   104  SER104      0.1924
     96  C         -4.3590   -5.5180  -12.5570 C.2   104  SER104      0.2314
     97  O         -4.4130   -4.3570  -12.1410 O.2   104  SER104     -0.2863
     98  CB        -6.2190   -7.1220  -12.0380 C.3   104  SER104      0.2116
     99  OG        -6.2910   -7.6100  -13.3640 O.3   104  SER104     -0.2180
    100  N         -7.7450   -4.4700  -13.5860 N.3   107  LYS107     -0.1231
    101  CA        -8.4340   -4.0190  -12.3850 C.3   107  LYS107      0.1693
    102  C         -7.4090   -3.6190  -11.3360 C.2   107  LYS107      0.2593
    103  O         -7.0380   -4.4180  -10.4750 O.2   107  LYS107     -0.2718
    104  CB        -9.3310   -5.1260  -11.8320 C.3   107  LYS107      0.0285
    105  CG       -10.2090   -4.6630  -10.6830 C.3   107  LYS107      0.0035
    106  CD       -10.8500   -5.8340   -9.9650 C.3   107  LYS107      0.0206
    107  CE       -11.7990   -5.3670   -8.8760 C.3   107  LYS107      0.1093
    108  NZ       -11.1390   -4.4570   -7.9010 N.3   107  LYS107     -0.1314
    109  N         -6.9450   -2.3860  -11.4110 N.am  108  SER108     -0.1938
    110  CA        -5.9200   -1.9150  -10.5020 C.3   108  SER108      0.2055
    111  C         -6.5300   -1.4550   -9.1890 C.2   108  SER108      0.2643
    112  O         -7.5510   -0.7650   -9.1680 O.2   108  SER108     -0.2714
    113  CB        -5.1100   -0.7840  -11.1460 C.3   108  SER108      0.2130
    114  OG        -4.4250   -1.2560  -12.2970 O.3   108  SER108     -0.2179
    115  N         -5.9080   -1.8670   -8.1010 N.am  109  ILE109     -0.1963
    116  CA        -6.2940   -1.4170   -6.7800 C.3   109  ILE109      0.1727
    117  C         -5.1410   -0.6470   -6.1690 C.2   109  ILE109      0.2616
    118  O         -3.9810   -1.0450   -6.3050 O.2   109  ILE109     -0.2715
    119  CB        -6.6740   -2.5870   -5.8450 C.3   109  ILE109      0.0290
    120  CG1       -5.5660   -3.6430   -5.8450 C.3   109  ILE109      0.0022
    121  CG2       -8.0050   -3.1970   -6.2560 C.3   109  ILE109      0.0023
    122  CD1       -5.7520   -4.7430   -4.8240 C.3   109  ILE109      0.0001
    123  N         -5.4530    0.4620   -5.5370 N.am  110  LEU110     -0.1963
    124  CA        -4.4360    1.2950   -4.9330 C.3   110  LEU110      0.1728
    125  C         -4.3790    1.0370   -3.4360 C.2   110  LEU110      0.2616
    126  O         -5.3620    1.2250   -2.7230 O.2   110  LEU110     -0.2715
    127  CB        -4.7220    2.7750   -5.2100 C.3   110  LEU110      0.0311
    128  CG        -4.4210    3.2610   -6.6330 C.3   110  LEU110      0.0022
    129  CD1       -5.3900    2.6640   -7.6470 C.3   110  LEU110      0.0001
    130  CD2       -4.4680    4.7790   -6.6850 C.3   110  LEU110      0.0001
    131  N         -3.2200    0.6150   -2.9620 N.am  111  LEU111     -0.1977
    132  CA        -3.0580    0.2750   -1.5610 C.3   111  LEU111      0.1596
    133  C         -1.8530    0.9920   -0.9790 C.2   111  LEU111      0.2287
    134  O         -0.8160    1.1040   -1.6300 O.2   111  LEU111     -0.2864
    135  CB        -2.8970   -1.2430   -1.3980 C.3   111  LEU111      0.0297
    136  CG        -4.1300   -2.0710   -1.7730 C.3   111  LEU111      0.0022
    137  CD1       -3.8280   -3.5570   -1.6810 C.3   111  LEU111      0.0001
    138  CD2       -5.3060   -1.7130   -0.8760 C.3   111  LEU111      0.0001
@<TRIPOS>BOND
     1   100   101    1
     2    99    98    1
     3    96    97    2
     4    96    95    1
     5   101   104    1
     6   101   102    1
     7   114   113    1
     8    98    95    1
     9   104   105    1
    10    95    94    1
    11   109   102   am
    12   109   110    1
    13   102   103    2
    14   113   110    1
    15   105   106    1
    16   110   111    1
    17    94    92   am
    18   106   107    1
    19    93    92    2
    20    92    91    1
    21   111   112    2
    22   111   115   am
    23   107   108    1
    24   115   116    1
    25    91    90    1
    26   129   128    1
    27   116   117    1
    28   116   119    1
    29   130   128    1
    30   128   127    1
    31   118   117    2
    32   121   119    1
    33   117   123   am
    34   120   119    1
    35   120   122    1
    36   123   124    1
    37    38    39    2
    38    38    37    1
    39   127   124    1
    40   124   125    1
    41    49    52    1
    42    49    48    1
    43    49    50    1
    44    42    44   ar
    45    42    41   ar
    46    52    53    1
    47    44    46   ar
    48    37    40    1
    49    37    36    1
    50    40    41    1
    51    50    51    2
    52    41    43   ar
    53   125   131   am
    54   125   126    2
    55    46    47    1
    56    46    45   ar
    57    53    55   ar
    58    53    54   ar
    59   131   132    1
    60    66    64    1
    61    43    45   ar
    62    55    57   ar
    63    54    56   ar
    64    64    63    1
    65    31    32    1
    66    31    30    1
    67   136   137    1
    68   136   135    1
    69   136   138    1
    70   134   133    2
    71   132   135    1
    72   132   133    1
    73    34    33    1
    74    32    33    2
    75    30    29    1
    76    33    35    1
    77    57    58   ar
    78    56    58   ar
    79    63    65    1
    80    63    60    1
    81    59    60    1
    82    60    61    1
    83    29    26    1
    84    27    28    2
    85    27    26    1
    86    26    25    1
    87     5     6    1
    88     5     2    1
    89    61    62    2
    90     1     2    1
    91     6     7   ar
    92     6     8   ar
    93     7     9   ar
    94     2     3    1
    95     8    10   ar
    96     9    11   ar
    97    87    89   ar
    98    87    85   ar
    99    89    88   ar
   100    71    72    1
   101    71    68    1
   102    10    11   ar
   103    11    12    1
   104    72    74   ar
   105    72    73   ar
   106    74    76   ar
   107    73    75   ar
   108    76    77   ar
   109    75    77   ar
   110    77    78    1
   111    85    84   ar
   112     3     4    2
   113    67    68    1
   114    68    69    1
   115    88    86   ar
   116    23    22    2
   117    84    86   ar
   118    84    83    1
   119    79    69   am
   120    79    80    1
   121    69    70    2
   122    22    21    1
   123    24    21    1
   124    18    19    1
   125    18    17    1
   126    83    80    1
   127    19    13    1
   128    80    81    1
   129    21    20    1
   130    13    14    1
   131    17    14    1
   132    14    15    1
   133    81    82    2
   134    15    16    2
