@<TRIPOS>MOLECULE
tmp/1t2vA00.pdb
 146 145 0 0 0
SMALL
GASTEIGER

@<TRIPOS>ATOM
      1  N         62.6930   60.3230   46.0140 N.3   119  CYS119     -0.1221
      2  CA        61.5300   59.4500   46.1330 C.3   119  CYS119      0.1808
      3  C         61.2190   58.8110   44.7790 C.2   119  CYS119      0.2601
      4  O         60.9900   59.5110   43.7860 O.2   119  CYS119     -0.2717
      5  CB        60.3190   60.2300   46.6570 C.3   119  CYS119      0.0970
      6  SG        58.8790   59.2480   47.1500 S.3   119  CYS119     -0.0800
      7  N         61.2450   57.4790   44.7430 N.am  120  CYS120     -0.1956
      8  CA        60.8020   56.7200   43.5810 C.3   120  CYS120      0.1843
      9  C         59.2860   56.6040   43.6120 C.2   120  CYS120      0.2625
     10  O         58.7110   56.3170   44.6570 O.2   120  CYS120     -0.2714
     11  CB        61.4170   55.3270   43.5930 C.3   120  CYS120      0.0997
     12  SG        63.1870   55.2900   43.2560 S.3   120  CYS120     -0.0797
     13  N         58.6400   56.8370   42.4750 N.am  121  TYR121     -0.1960
     14  CA        57.1820   56.8480   42.4040 C.3   121  TYR121      0.1771
     15  C         56.6880   55.9880   41.2500 C.2   121  TYR121      0.2620
     16  O         57.3000   55.9670   40.1780 O.2   121  TYR121     -0.2715
     17  CB        56.6680   58.2870   42.2560 C.3   121  TYR121      0.0574
     18  CG        55.1740   58.4590   42.4730 C.ar  121  TYR121     -0.0198
     19  CD1       54.6430   58.5700   43.7560 C.ar  121  TYR121     -0.0009
     20  CD2       54.2930   58.5240   41.3910 C.ar  121  TYR121     -0.0009
     21  CE1       53.2740   58.7250   43.9560 C.ar  121  TYR121      0.0417
     22  CE2       52.9240   58.6780   41.5840 C.ar  121  TYR121      0.0417
     23  CZ        52.4250   58.7790   42.8670 C.ar  121  TYR121      0.1957
     24  OH        51.0740   58.9330   43.0630 O.3   121  TYR121     -0.2866
     25  N         55.5850   55.2780   41.4820 N.am  122  GLY122     -0.1940
     26  CA        54.9380   54.4740   40.4590 C.3   122  GLY122      0.1998
     27  C         55.6760   53.2020   40.0690 C.2   122  GLY122      0.2481
     28  O         56.5830   52.7700   40.7800 O.2   122  GLY122     -0.2729
     29  N         55.2860   52.6110   38.9360 N.am  123  PRO123     -0.2715
     30  CA        55.7910   51.3030   38.5030 C.3   123  PRO123      0.1536
     31  C         57.2220   51.3460   37.9860 C.2   123  PRO123      0.2599
     32  O         57.6580   52.3910   37.4890 O.2   123  PRO123     -0.2715
     33  CB        54.8380   50.9280   37.3680 C.3   123  PRO123      0.0310
     34  CG        54.3770   52.2190   36.8230 C.3   123  PRO123      0.0237
     35  CD        54.3090   53.1560   37.9800 C.3   123  PRO123      0.0939
     36  N         57.9300   50.2210   38.1190 N.am  124  PHE124     -0.1960
     37  CA        59.3310   50.0870   37.7100 C.3   124  PHE124      0.1771
     38  C         59.5560   48.6830   37.1560 C.2   124  PHE124      0.2620
     39  O         58.9410   47.7360   37.6360 O.2   124  PHE124     -0.2715
     40  CB        60.2560   50.3400   38.9000 C.3   124  PHE124      0.0574
     41  CG        60.4450   51.7890   39.2190 C.ar  124  PHE124     -0.0200
     42  CD1       59.7030   52.3930   40.2190 C.ar  124  PHE124     -0.0042
     43  CD2       61.3620   52.5540   38.5170 C.ar  124  PHE124     -0.0042
     44  CE1       59.8670   53.7350   40.5140 C.ar  124  PHE124     -0.0003
     45  CE2       61.5340   53.9030   38.8050 C.ar  124  PHE124     -0.0003
     46  CZ        60.7870   54.4920   39.8040 C.ar  124  PHE124     -0.0000
     47  N         60.4350   48.5380   36.1630 N.am  125  THR125     -0.1937
     48  CA        60.5040   47.2820   35.4020 C.3   125  THR125      0.2028
     49  C         61.6030   46.3250   35.8050 C.2   125  THR125      0.2642
     50  O         61.3770   45.3850   36.5720 O.2   125  THR125     -0.2714
     51  CB        60.6490   47.5240   33.8800 C.3   125  THR125      0.1808
     52  OG1       61.6940   48.4730   33.6430 O.3   125  THR125     -0.2208
     53  CG2       59.4000   48.1570   33.2880 C.3   125  THR125      0.0379
     54  N         62.7850   46.5470   35.2400 N.am  126  ASN126     -0.1957
     55  CA        63.8140   45.5180   35.2120 C.3   126  ASN126      0.1819
     56  C         64.7130   45.5470   36.4370 C.2   126  ASN126      0.2621
     57  O         65.2660   44.5220   36.8370 O.2   126  ASN126     -0.2715
     58  CB        64.6450   45.6360   33.9310 C.3   126  ASN126      0.1195
     59  CG        63.7830   45.6900   32.6730 C.2   126  ASN126      0.2630
     60  OD1       62.7110   45.0840   32.6100 O.2   126  ASN126     -0.2716
     61  ND2       64.2530   46.4210   31.6630 N.am  126  ASN126     -0.0877
     62  N         64.8460   46.7290   37.0270 N.am  127  MET127     -0.1964
     63  CA        65.6860   46.9200   38.1940 C.3   127  MET127      0.1722
     64  C         64.8290   46.9470   39.4560 C.2   127  MET127      0.2458
     65  O         63.8850   47.7440   39.5410 O.2   127  MET127     -0.2730
     66  CB        66.4340   48.2290   38.0540 C.3   127  MET127      0.0427
     67  CG        67.3990   48.5020   39.1570 C.3   127  MET127      0.0599
     68  SD        68.2110   50.0320   38.8190 S.3   127  MET127     -0.1393
     69  CE        69.5190   49.4980   37.7750 C.3   127  MET127      0.0692
     70  N         65.1450   46.0860   40.4280 N.am  128  PRO128     -0.2716
     71  CA        64.4260   46.0690   41.7050 C.3   128  PRO128      0.1536
     72  C         64.4890   47.4500   42.3340 C.2   128  PRO128      0.2599
     73  O         65.5560   48.0750   42.2760 O.2   128  PRO128     -0.2715
     74  CB        65.2110   45.0580   42.5280 C.3   128  PRO128      0.0310
     75  CG        65.8170   44.1850   41.5250 C.3   128  PRO128      0.0237
     76  CD        66.2030   45.0650   40.3870 C.3   128  PRO128      0.0939
     77  N         63.3690   47.9380   42.8660 N.am  129  THR129     -0.1937
     78  CA        63.3130   49.3080   43.3780 C.3   129  THR129      0.2028
     79  C         64.2450   49.4500   44.5630 C.2   129  THR129      0.2642
     80  O         65.0300   50.3870   44.6160 O.2   129  THR129     -0.2714
     81  CB        61.8710   49.7570   43.7530 C.3   129  THR129      0.1808
     82  OG1       60.8910   48.8760   43.1840 O.3   129  THR129     -0.2208
     83  CG2       61.5630   51.0800   43.0970 C.3   129  THR129      0.0379
     84  N         64.1870   48.4700   45.4630 N.am  130  ASP130     -0.1971
     85  CA        65.0400   48.3860   46.6570 C.3   130  ASP130      0.1709
     86  C         66.5420   48.3950   46.3530 C.2   130  ASP130      0.2293
     87  O         67.3570   48.6920   47.2340 O.2   130  ASP130     -0.2864
     88  CB        64.7160   47.1100   47.4270 C.3   130  ASP130      0.1436
     89  CG        64.9430   45.8690   46.5920 C.2   130  ASP130      0.3671
     90  OD1       63.9570   45.3830   45.9960 O.co2 130  ASP130     -0.2456
     91  OD2       66.0720   45.3390   46.4370 O.co2 130  ASP130     -0.2456
     92  N         67.1590   52.2090   45.0390 N.3   133  GLU133     -0.1245
     93  CA        67.1370   53.0090   46.2600 C.3   133  GLU133      0.1567
     94  C         68.4420   52.8950   47.0490 C.2   133  GLU133      0.2260
     95  O         68.9020   53.8660   47.6430 O.2   133  GLU133     -0.2867
     96  CB        65.9510   52.6070   47.1420 C.3   133  GLU133      0.0388
     97  CG        64.6070   52.9680   46.5330 C.3   133  GLU133      0.1160
     98  CD        63.4430   52.7870   47.4850 C.2   133  GLU133      0.3649
     99  OE1       63.3550   51.7290   48.1530 O.co2 133  GLU133     -0.2457
    100  OE2       62.6030   53.7110   47.5540 O.co2 133  GLU133     -0.2457
    101  N         60.0870   57.3050   51.0840 N.3   145  LYS145     -0.1231
    102  CA        59.2360   56.2330   50.5790 C.3   145  LYS145      0.1693
    103  C         57.8220   56.6960   50.2200 C.2   145  LYS145      0.2592
    104  O         57.0720   55.9500   49.5980 O.2   145  LYS145     -0.2718
    105  CB        59.2010   55.0480   51.5630 C.3   145  LYS145      0.0285
    106  CG        60.5810   54.4520   51.8990 C.3   145  LYS145      0.0035
    107  CD        60.9090   53.2210   51.0560 C.3   145  LYS145      0.0206
    108  CE        61.4600   52.0830   51.9200 C.3   145  LYS145      0.1093
    109  NZ        62.3970   51.1820   51.1700 N.3   145  LYS145     -0.1314
    110  N         57.4560   57.9140   50.6100 N.am  146  GLU146     -0.1966
    111  CA        56.1320   58.4570   50.2950 C.3   146  GLU146      0.1733
    112  C         56.2400   59.9230   49.8790 C.2   146  GLU146      0.2616
    113  O         57.0570   60.6610   50.4220 O.2   146  GLU146     -0.2715
    114  CB        55.1660   58.3160   51.4870 C.3   146  GLU146      0.0429
    115  CG        54.7440   56.8860   51.8300 C.3   146  GLU146      0.1163
    116  CD        53.2570   56.6210   51.6260 C.2   146  GLU146      0.3649
    117  OE1       52.8920   56.0860   50.5500 O.co2 146  GLU146     -0.2457
    118  OE2       52.4570   56.9310   52.5440 O.co2 146  GLU146     -0.2457
    119  N         55.3960   60.3430   48.9380 N.am  147  LEU147     -0.1977
    120  CA        55.4430   61.6960   48.3770 C.3   147  LEU147      0.1596
    121  C         55.2130   62.8140   49.3950 C.2   147  LEU147      0.2287
    122  O         55.7270   63.9250   49.2390 O.2   147  LEU147     -0.2864
    123  CB        54.4360   61.8270   47.2360 C.3   147  LEU147      0.0297
    124  CG        54.9850   61.9110   45.8100 C.3   147  LEU147      0.0022
    125  CD1       53.8580   62.2500   44.8700 C.3   147  LEU147      0.0001
    126  CD2       56.1100   62.9310   45.6800 C.3   147  LEU147      0.0001
    127  N         58.0530   54.4800   30.8800 N.3   162  ASP162     -0.1225
    128  CA        57.6310   53.3660   30.0220 C.3   162  ASP162      0.1805
    129  C         57.0720   52.1580   30.7950 C.2   162  ASP162      0.2597
    130  O         56.6900   51.1510   30.1830 O.2   162  ASP162     -0.2718
    131  CB        58.7400   52.9510   29.0320 C.3   162  ASP162      0.1424
    132  CG        60.0450   52.5510   29.7210 C.2   162  ASP162      0.3668
    133  OD1       60.4900   53.2700   30.6460 O.co2 162  ASP162     -0.2456
    134  OD2       60.7080   51.5390   29.3920 O.co2 162  ASP162     -0.2456
    135  N         57.0110   52.2670   32.1270 N.am  163  ALA163     -0.1979
    136  CA        56.3650   51.2550   32.9730 C.3   163  ALA163      0.1597
    137  C         54.8860   51.5620   33.2580 C.2   163  ALA163      0.2287
    138  O         54.1640   50.7260   33.8020 O.2   163  ALA163     -0.2864
    139  CB        57.1300   51.0780   34.2760 C.3   163  ALA163      0.0319
    140  N         50.9580   52.2060   32.6520 N.3   165  THR165     -0.1218
    141  CA        49.9050   51.6760   31.7880 C.3   165  THR165      0.1862
    142  C         48.9070   52.7570   31.3780 C.2   165  THR165      0.2287
    143  O         48.3890   52.7380   30.2590 O.2   165  THR165     -0.2866
    144  CB        49.1840   50.4960   32.4680 C.3   165  THR165      0.1770
    145  OG1       48.6090   50.9620   33.6790 O.3   165  THR165     -0.2211
    146  CG2       50.1210   49.3330   32.7330 C.3   165  THR165      0.0375
@<TRIPOS>BOND
     1   131   132    1
     2   131   128    1
     3   134   132   ar
     4   132   133   ar
     5   128   129    1
     6   128   127    1
     7   130   129    2
     8   143   142    2
     9   129   135   am
    10   142   141    1
    11    61    59   am
    12   141   144    1
    13   141   140    1
    14   135   136    1
    15   144   146    1
    16   144   145    1
    17    60    59    2
    18    59    58    1
    19   136   137    1
    20   136   139    1
    21   137   138    2
    22    53    51    1
    23    52    51    1
    24    51    48    1
    25    58    55    1
    26    55    54    1
    27    55    56    1
    28    54    49   am
    29    48    49    1
    30    48    47    1
    31    49    50    2
    32    47    38   am
    33    56    57    2
    34    56    62   am
    35    34    33    1
    36    34    35    1
    37    62    63    1
    38    38    39    2
    39    38    37    1
    40    33    30    1
    41    32    31    2
    42    37    36    1
    43    37    40    1
    44    69    68    1
    45    35    29    1
    46    31    36   am
    47    31    30    1
    48    66    63    1
    49    66    67    1
    50    63    64    1
    51    30    29    1
    52    43    45   ar
    53    43    41   ar
    54    45    46   ar
    55    68    67    1
    56    40    41    1
    57    29    27   am
    58    41    42   ar
    59    64    65    2
    60    64    70   am
    61    46    44   ar
    62    27    26    1
    63    27    28    2
    64    16    15    2
    65    42    44   ar
    66    76    70    1
    67    76    75    1
    68    70    71    1
    69    26    25    1
    70    15    25   am
    71    15    14    1
    72    20    22   ar
    73    20    18   ar
    74    75    74    1
    75    22    23   ar
    76    71    72    1
    77    71    74    1
    78    17    14    1
    79    17    18    1
    80    73    72    2
    81    72    77   am
    82    14    13    1
    83    18    19   ar
    84    13     9   am
    85    77    78    1
    86    23    24    1
    87    23    21   ar
    88    83    81    1
    89    82    81    1
    90    12    11    1
    91    78    81    1
    92    78    79    1
    93     8    11    1
    94     8     9    1
    95     8     7    1
    96     9    10    2
    97    19    21   ar
    98     4     3    2
    99    79    80    2
   100    79    84   am
   101     7     3   am
   102     3     2    1
   103   125   124    1
   104    92    93    1
   105    84    85    1
   106   126   124    1
   107   124   123    1
   108    90    89   ar
   109     1     2    1
   110     2     5    1
   111    93    94    1
   112    93    96    1
   113    86    85    1
   114    86    87    2
   115    91    89   ar
   116    97    96    1
   117    97    98    1
   118    89    88    1
   119    85    88    1
   120     5     6    1
   121    94    95    2
   122   123   120    1
   123    98   100   ar
   124    98    99   ar
   125   120   119    1
   126   120   121    1
   127   119   112   am
   128   122   121    2
   129   104   103    2
   130   112   111    1
   131   112   113    2
   132   103   102    1
   133   103   110   am
   134   111   110    1
   135   111   114    1
   136   117   116   ar
   137   102   101    1
   138   102   105    1
   139   107   106    1
   140   107   108    1
   141   109   108    1
   142   114   115    1
   143   105   106    1
   144   116   115    1
   145   116   118   ar
