@<TRIPOS>MOLECULE
tmp/1t2wA00.pdb
 154 142 0 0 0
SMALL
GASTEIGER

@<TRIPOS>ATOM
      1  N        -33.4570  -10.6240    1.7400 N.3    31  ALA31      -0.1245
      2  CA       -34.2060  -11.1860    0.6250 C.3    31  ALA31       0.1562
      3  C        -35.6370  -10.6560    0.5090 C.2    31  ALA31       0.2260
      4  O        -36.5820  -11.2910    0.9610 O.2    31  ALA31      -0.2867
      5  CB       -34.2120  -12.7100    0.7270 C.3    31  ALA31       0.0290
      6  N        -30.1680  -14.0990    2.7660 N.3    43  ALA43      -0.1231
      7  CA       -31.3140  -13.9970    3.6370 C.3    43  ALA43       0.1694
      8  C        -31.4110  -12.7000    4.4440 C.2    43  ALA43       0.2591
      9  O        -32.4470  -12.0170    4.4300 O.2    43  ALA43      -0.2718
     10  CB       -31.3160  -15.1970    4.5940 C.3    43  ALA43       0.0304
     11  N        -30.3340  -12.3720    5.1520 N.am   44  GLU44      -0.1979
     12  CA       -30.3070  -11.1870    6.0060 C.3    44  GLU44       0.1602
     13  C        -29.4020  -10.0900    5.4530 C.2    44  GLU44       0.2287
     14  O        -28.4720  -10.3530    4.6960 O.2    44  GLU44      -0.2864
     15  CB       -29.8290  -11.5850    7.3980 C.3    44  GLU44       0.0415
     16  CG       -30.7110  -12.6260    8.0840 C.3    44  GLU44       0.1163
     17  CD       -30.0640  -13.2100    9.3270 C.2    44  GLU44       0.3649
     18  OE1      -30.7220  -14.0170   10.0160 O.co2  44  GLU44      -0.2457
     19  OE2      -28.8980  -12.8640    9.6150 O.co2  44  GLU44      -0.2457
     20  N        -25.7150  -10.3530    6.6950 N.3    47  GLU47      -0.1245
     21  CA       -25.0470  -11.6240    6.4320 C.3    47  GLU47       0.1567
     22  C        -23.5400  -11.4310    6.2490 C.2    47  GLU47       0.2260
     23  O        -23.0840  -10.3470    5.8710 O.2    47  GLU47      -0.2867
     24  CB       -25.6350  -12.2820    5.1790 C.3    47  GLU47       0.0388
     25  CG       -24.9820  -13.6060    4.8190 C.3    47  GLU47       0.1160
     26  CD       -25.1720  -14.6530    5.8970 C.2    47  GLU47       0.3649
     27  OE1      -26.2750  -15.2410    5.9810 O.co2  47  GLU47      -0.2457
     28  OE2      -24.2180  -14.8730    6.6720 O.co2  47  GLU47      -0.2457
     29  N        -23.0720  -20.2400    9.3030 N.3    53  ASN53      -0.1240
     30  CA       -24.2500  -20.5540    8.5110 C.3    53  ASN53       0.1653
     31  C        -24.5680  -19.3690    7.6160 C.2    53  ASN53       0.2266
     32  O        -24.8270  -18.2690    8.1030 O.2    53  ASN53      -0.2867
     33  CB       -25.4530  -20.8310    9.4140 C.3    53  ASN53       0.1155
     34  CG       -26.7060  -21.1760    8.6250 C.2    53  ASN53       0.2627
     35  OD1      -27.8140  -20.8060    9.0110 O.2    53  ASN53      -0.2716
     36  ND2      -26.5360  -21.9000    7.5260 N.am   53  ASN53      -0.0877
     37  N        -27.1340  -18.0070    4.7510 N.3    55  SER55      -0.1217
     38  CA       -28.4480  -18.2890    4.1920 C.3    55  SER55       0.1889
     39  C        -28.7420  -17.5350    2.9060 C.2    55  SER55       0.2288
     40  O        -28.5470  -16.3230    2.8240 O.2    55  SER55      -0.2866
     41  CB       -29.5310  -17.9780    5.2290 C.3    55  SER55       0.2089
     42  OG       -29.3550  -18.7670    6.3910 O.3    55  SER55      -0.2183
     43  N        -31.7890  -17.1180   -0.1630 N.3    57  ALA57      -0.1245
     44  CA       -33.1770  -17.3600   -0.5390 C.3    57  ALA57       0.1562
     45  C        -33.3880  -17.2470   -2.0470 C.2    57  ALA57       0.2260
     46  O        -32.7580  -16.4260   -2.7240 O.2    57  ALA57      -0.2867
     47  CB       -34.0870  -16.3820    0.2010 C.3    57  ALA57       0.0290
     48  N        -39.6540  -24.5850    7.5890 N.3   102  PRO102     -0.2116
     49  CA       -38.7670  -23.8710    8.5190 C.3   102  PRO102      0.1372
     50  C        -38.8970  -24.2340    9.9960 C.2   102  PRO102      0.2244
     51  O        -37.8890  -24.3610   10.7030 O.2   102  PRO102     -0.2868
     52  CB       -39.1130  -22.4100    8.2620 C.3   102  PRO102      0.0268
     53  CG       -39.3630  -22.4010    6.8160 C.3   102  PRO102      0.0207
     54  CD       -40.2160  -23.6420    6.6030 C.3   102  PRO102      0.0892
     55  N        -34.8560  -28.4730   12.0480 N.3   107  VAL107     -0.1231
     56  CA       -34.2200  -27.3670   12.7570 C.3   107  VAL107      0.1692
     57  C        -32.6950  -27.4530   12.7520 C.2   107  VAL107      0.2591
     58  O        -32.1070  -28.2380   12.0090 O.2   107  VAL107     -0.2718
     59  CB       -34.7100  -27.2810   14.2230 C.3   107  VAL107      0.0266
     60  CG1      -36.1580  -26.8220   14.2620 C.3   107  VAL107      0.0020
     61  CG2      -34.5700  -28.6340   14.9010 C.3   107  VAL107      0.0020
     62  N        -32.0730  -26.6320   13.5920 N.am  108  LEU108     -0.1980
     63  CA       -30.6200  -26.5580   13.7210 C.3   108  LEU108      0.1596
     64  C        -29.9030  -27.8850   13.4730 C.2   108  LEU108      0.2287
     65  O        -29.7070  -28.6710   14.4010 O.2   108  LEU108     -0.2864
     66  CB       -30.2530  -26.0490   15.1190 C.3   108  LEU108      0.0297
     67  CG       -31.3370  -25.2850   15.8870 C.3   108  LEU108      0.0022
     68  CD1      -30.8030  -24.8840   17.2570 C.3   108  LEU108      0.0001
     69  CD2      -31.7780  -24.0580   15.1000 C.3   108  LEU108      0.0001
     70  N        -26.0120  -25.7410   12.5800 N.3   111  GLN111     -0.1245
     71  CA       -25.8570  -24.3280   12.9050 C.3   111  GLN111      0.1566
     72  C        -24.8830  -24.0840   14.0520 C.2   111  GLN111      0.2260
     73  O        -24.4820  -22.9490   14.3020 O.2   111  GLN111     -0.2867
     74  CB       -27.2130  -23.7030   13.2540 C.3   111  GLN111      0.0367
     75  CG       -27.1740  -22.1810   13.3250 C.3   111  GLN111      0.0905
     76  CD       -28.5410  -21.5490   13.5390 C.2   111  GLN111      0.2608
     77  OE1      -28.9380  -21.2650   14.6660 O.2   111  GLN111     -0.2717
     78  NE2      -29.2700  -21.3340   12.4530 N.am  111  GLN111     -0.0878
     79  N        -27.5490  -22.6070    4.0890 N.3   119  THR119     -0.1218
     80  CA       -28.9730  -22.8720    4.2470 C.3   119  THR119      0.1862
     81  C        -29.6630  -22.2370    3.0420 C.2   119  THR119      0.2287
     82  O        -29.6840  -21.0100    2.9050 O.2   119  THR119     -0.2866
     83  CB       -29.5420  -22.2520    5.5440 C.3   119  THR119      0.1770
     84  OG1      -28.9250  -22.8680    6.6810 O.3   119  THR119     -0.2211
     85  CG2      -31.0470  -22.4750    5.6250 C.3   119  THR119      0.0375
     86  N        -33.0050  -21.4530    0.9860 N.3   121  ILE121     -0.1245
     87  CA       -34.4180  -21.2700    1.2550 C.3   121  ILE121      0.1561
     88  C        -35.2440  -20.9550    0.0180 C.2   121  ILE121      0.2260
     89  O        -34.9790  -19.9790   -0.6680 O.2   121  ILE121     -0.2867
     90  CB       -34.6030  -20.1050    2.2490 C.3   121  ILE121      0.0252
     91  CG1      -33.6960  -20.3140    3.4700 C.3   121  ILE121      0.0019
     92  CG2      -36.0630  -19.9940    2.6640 C.3   121  ILE121      0.0019
     93  CD1      -33.6600  -19.1380    4.4140 C.3   121  ILE121      0.0001
     94  N        -38.3590  -19.4280   -1.4050 N.3   123  ALA123     -0.1245
     95  CA       -39.2990  -18.4490   -0.8690 C.3   123  ALA123      0.1562
     96  C        -40.4360  -18.0960   -1.8320 C.2   123  ALA123      0.2260
     97  O        -40.2480  -18.0090   -3.0510 O.2   123  ALA123     -0.2867
     98  CB       -38.5560  -17.1850   -0.4530 C.3   123  ALA123      0.0290
     99  N        -44.6920  -13.4400   -0.3880 N.3   126  TYR126     -0.1241
    100  CA       -44.1600  -12.4430    0.5340 C.3   126  TYR126      0.1605
    101  C        -45.3170  -11.6350    1.1100 C.2   126  TYR126      0.2264
    102  O        -46.2030  -11.2120    0.3690 O.2   126  TYR126     -0.2867
    103  CB       -43.2120  -11.4940   -0.1990 C.3   126  TYR126      0.0534
    104  CG       -42.5240  -10.5040    0.7140 C.ar  126  TYR126     -0.0201
    105  CD1      -41.4860  -10.9070    1.5490 C.ar  126  TYR126     -0.0009
    106  CD2      -42.9110   -9.1610    0.7390 C.ar  126  TYR126     -0.0009
    107  CE1      -40.8410   -9.9970    2.3910 C.ar  126  TYR126      0.0417
    108  CE2      -42.2740   -8.2400    1.5750 C.ar  126  TYR126      0.0417
    109  CZ       -41.2410   -8.6640    2.3970 C.ar  126  TYR126      0.1957
    110  OH       -40.6010   -7.7580    3.2210 O.3   126  TYR126     -0.2866
    111  N        -43.2840   -8.8060    6.6360 N.3   131  GLY131     -0.1210
    112  CA       -41.9340   -8.9160    6.1140 C.3   131  GLY131      0.1956
    113  C        -41.4620  -10.3580    6.0540 C.2   131  GLY131      0.2612
    114  O        -40.2670  -10.6360    6.1550 O.2   131  GLY131     -0.2717
    115  N        -42.4010  -11.2770    5.8640 N.am  132  VAL132     -0.1965
    116  CA       -42.0760  -12.7000    5.8160 C.3   132  VAL132      0.1727
    117  C        -42.5630  -13.4020    4.5490 C.2   132  VAL132      0.2616
    118  O        -43.6080  -13.0610    3.9980 O.2   132  VAL132     -0.2715
    119  CB       -42.7010  -13.4360    7.0300 C.3   132  VAL132      0.0290
    120  CG1      -42.3210  -14.9120    7.0100 C.3   132  VAL132      0.0023
    121  CG2      -42.2520  -12.7800    8.3280 C.3   132  VAL132      0.0023
    122  N        -41.7900  -14.3790    4.0820 N.am  133  TRP133     -0.1974
    123  CA       -42.2010  -15.1700    2.9290 C.3   133  TRP133      0.1640
    124  C        -42.9580  -16.3130    3.6040 C.2   133  TRP133      0.2290
    125  O        -42.3550  -17.1920    4.2100 O.2   133  TRP133     -0.2864
    126  CB       -40.9890  -15.7070    2.1550 C.3   133  TRP133      0.0576
    127  CG       -40.2400  -14.6430    1.3950 C.ar  133  TRP133      0.0006
    128  CD1      -39.2140  -13.8730    1.8590 C.ar  133  TRP133      0.0946
    129  CD2      -40.4840  -14.2160    0.0510 C.ar  133  TRP133      0.0152
    130  NE1      -38.8000  -12.9930    0.8870 N.ar  133  TRP133     -0.2442
    131  CE2      -39.5630  -13.1800   -0.2340 C.ar  133  TRP133      0.0810
    132  CE3      -41.3900  -14.6040   -0.9420 C.ar  133  TRP133      0.0012
    133  CZ2      -39.5230  -12.5290   -1.4710 C.ar  133  TRP133      0.0191
    134  CZ3      -41.3510  -13.9540   -2.1760 C.ar  133  TRP133      0.0001
    135  CH2      -40.4210  -12.9280   -2.4270 C.ar  133  TRP133      0.0015
    136  N        -42.1620  -21.2770    2.6400 N.3   136  ARG136     -0.1245
    137  CA       -40.7220  -21.5550    2.6620 C.3   136  ARG136      0.1563
    138  C        -40.3490  -23.0050    2.9390 C.2   136  ARG136      0.2260
    139  O        -40.9760  -23.6940    3.7430 O.2   136  ARG136     -0.2867
    140  CB       -40.0470  -20.6940    3.7260 C.3   136  ARG136      0.0307
    141  CG       -39.8190  -19.2500    3.3240 C.3   136  ARG136      0.0489
    142  CD       -40.0240  -18.3340    4.5100 C.3   136  ARG136      0.2205
    143  NE       -39.3100  -18.7680    5.7040 N.pl3 136  ARG136     -0.0865
    144  CZ       -39.8680  -18.8520    6.9090 C.cat 136  ARG136      0.5346
    145  NH1      -41.1470  -18.5330    7.0750 N.pl3 136  ARG136      0.1354
    146  NH2      -39.1530  -19.2630    7.9480 N.pl3 136  ARG136      0.1354
    147  N        -36.6540  -25.2780    3.5060 N.3   138  ILE138     -0.1245
    148  CA       -35.2200  -25.1470    3.6920 C.3   138  ILE138      0.1561
    149  C        -34.4080  -26.3640    3.2760 C.2   138  ILE138      0.2260
    150  O        -34.8610  -27.5100    3.3790 O.2   138  ILE138     -0.2867
    151  CB       -34.8770  -24.7870    5.1560 C.3   138  ILE138      0.0252
    152  CG1      -35.4290  -25.8460    6.1030 C.3   138  ILE138      0.0019
    153  CG2      -35.4510  -23.4200    5.5010 C.3   138  ILE138      0.0019
    154  CD1      -35.1500  -25.5790    7.5660 C.3   138  ILE138      0.0001
@<TRIPOS>BOND
     1    97    96    2
     2    46    45    2
     3   135   134   ar
     4   135   133   ar
     5   134   132   ar
     6    45    44    1
     7    96    95    1
     8   133   131   ar
     9    94    95    1
    10   132   129   ar
    11    95    98    1
    12    89    88    2
    13    44    43    1
    14    44    47    1
    15    99   100    1
    16   131   129   ar
    17   131   130   ar
    18   103   100    1
    19   103   104    1
    20    88    87    1
    21   129   127   ar
    22   102   101    2
    23     3     2    1
    24     3     4    2
    25   100   101    1
    26     2     5    1
    27     2     1    1
    28   104   106   ar
    29   104   105   ar
    30   106   108   ar
    31   130   128   ar
    32    86    87    1
    33    87    90    1
    34   127   128   ar
    35   127   126    1
    36   105   107   ar
    37   108   109   ar
    38   126   123    1
    39    90    92    1
    40    90    91    1
    41   107   109   ar
    42   109   110    1
    43   136   137    1
    44   137   138    1
    45   137   140    1
    46     6     7    1
    47    40    39    2
    48    82    81    2
    49    39    38    1
    50   123   124    1
    51   123   122    1
    52   138   139    2
    53    81    80    1
    54   149   150    2
    55   149   148    1
    56   141   140    1
    57   141   142    1
    58    91    93    1
    59   147   148    1
    60   124   125    2
    61     7     8    1
    62     7    10    1
    63   148   151    1
    64   118   117    2
    65   122   117   am
    66    79    80    1
    67    38    37    1
    68    38    41    1
    69    80    83    1
    70     9     8    2
    71     8    11   am
    72   142   143    1
    73   117   116    1
    74    14    13    2
    75    25    24    1
    76    25    26    1
    77    11    12    1
    78   151   153    1
    79   151   152    1
    80    24    21    1
    81    41    42    1
    82    13    12    1
    83    83    85    1
    84    83    84    1
    85   143   144    2
    86   116   115    1
    87   116   119    1
    88   115   113   am
    89    23    22    2
    90    26    27   ar
    91    26    28   ar
    92    12    15    1
    93   113   112    1
    94   113   114    2
    95   152   154    1
    96   112   111    1
    97    22    21    1
    98    21    20    1
    99    54    53    1
   100    54    48    1
   101    53    52    1
   102   144   145    1
   103   144   146    1
   104   120   119    1
   105   119   121    1
   106    15    16    1
   107    36    34   am
   108    48    49    1
   109    31    32    2
   110    31    30    1
   111    16    17    1
   112    52    49    1
   113    30    29    1
   114    30    33    1
   115    49    50    1
   116    34    35    2
   117    34    33    1
   118    17    19   ar
   119    17    18   ar
   120    50    51    2
   121    58    57    2
   122    55    56    1
   123    78    76   am
   124    70    71    1
   125    57    56    1
   126    57    62   am
   127    56    59    1
   128    71    74    1
   129    71    72    1
   130    74    75    1
   131    75    76    1
   132    64    63    1
   133    64    65    2
   134    76    77    2
   135    62    63    1
   136    63    66    1
   137    72    73    2
   138    59    60    1
   139    59    61    1
   140    69    67    1
   141    66    67    1
   142    67    68    1
