@<TRIPOS>MOLECULE
tmp/1t31A01.pdb
 168 162 0 0 0
SMALL
GASTEIGER

@<TRIPOS>ATOM
      1  N        -11.7970   45.7960   21.2980 N.3    28  LYS28      -0.1231
      2  CA       -10.3690   45.5970   21.4540 C.3    28  LYS28       0.1693
      3  C         -9.6410   46.2850   20.3100 C.2    28  LYS28       0.2592
      4  O        -10.2700   46.7220   19.3410 O.2    28  LYS28      -0.2718
      5  CB       -10.0670   44.0970   21.5010 C.3    28  LYS28       0.0285
      6  CG        -9.3550   43.5300   20.2980 C.3    28  LYS28       0.0035
      7  CD        -8.7300   42.2000   20.6720 C.3    28  LYS28       0.0206
      8  CE        -7.5370   41.8810   19.7980 C.3    28  LYS28       0.1093
      9  NZ        -6.8250   40.6920   20.3170 N.3    28  LYS28      -0.1314
     10  N         -8.3230   46.4080   20.4250 N.am   29  PHE29      -0.1962
     11  CA        -7.5700   47.0460   19.3600 C.3    29  PHE29       0.1771
     12  C         -6.3420   46.2550   18.9200 C.2    29  PHE29       0.2619
     13  O         -5.8500   45.3640   19.6300 O.2    29  PHE29      -0.2715
     14  CB        -7.1590   48.4730   19.7530 C.3    29  PHE29       0.0574
     15  CG        -6.0970   48.5400   20.8140 C.ar   29  PHE29      -0.0200
     16  CD1       -6.4320   48.4540   22.1660 C.ar   29  PHE29      -0.0042
     17  CD2       -4.7570   48.6910   20.4630 C.ar   29  PHE29      -0.0042
     18  CE1       -5.4470   48.5170   23.1530 C.ar   29  PHE29      -0.0003
     19  CE2       -3.7640   48.7530   21.4430 C.ar   29  PHE29      -0.0003
     20  CZ        -4.1090   48.6660   22.7900 C.ar   29  PHE29      -0.0000
     21  N         -5.8720   46.5950   17.7250 N.am   30  CYS30      -0.1968
     22  CA        -4.7080   45.9760   17.1100 C.3    30  CYS30       0.1712
     23  C         -4.0950   47.0190   16.1920 C.2    30  CYS30       0.2296
     24  O         -4.6980   48.0600   15.9250 O.2    30  CYS30      -0.2864
     25  CB        -5.1160   44.7760   16.2450 C.3    30  CYS30       0.0983
     26  SG        -5.4770   43.2270   17.1330 S.3    30  CYS30      -0.0798
     27  N         -5.7940   36.9230   14.1720 N.3    45  HIS45      -0.1241
     28  CA        -6.4060   36.8190   15.4930 C.3    45  HIS45       0.1621
     29  C         -7.0910   38.1150   15.9080 C.2    45  HIS45       0.2264
     30  O         -7.7590   38.1710   16.9450 O.2    45  HIS45      -0.2867
     31  CB        -5.3710   36.4000   16.5530 C.3    45  HIS45       0.0745
     32  CG        -4.5020   37.5180   17.0490 C.ar   45  HIS45       0.0817
     33  ND1       -3.1470   37.5760   16.7950 N.ar   45  HIS45      -0.2268
     34  CD2       -4.7800   38.5790   17.8420 C.ar   45  HIS45       0.1154
     35  CE1       -2.6290   38.6220   17.4130 C.ar   45  HIS45       0.1986
     36  NE2       -3.5990   39.2460   18.0580 N.ar   45  HIS45      -0.2212
     37  N         -5.2860   29.7380    9.0500 N.3    81  TYR81      -0.1241
     38  CA        -5.0430   30.2710   10.3900 C.3    81  TYR81       0.1605
     39  C         -5.5050   29.2100   11.3790 C.2    81  TYR81       0.2264
     40  O         -6.6430   28.7420   11.3180 O.2    81  TYR81      -0.2867
     41  CB        -5.8150   31.5710   10.6220 C.3    81  TYR81       0.0534
     42  CG        -5.7470   32.0440   12.0570 C.ar   81  TYR81      -0.0201
     43  CD1       -4.5190   32.3050   12.6690 C.ar   81  TYR81      -0.0009
     44  CD2       -6.9070   32.1990   12.8140 C.ar   81  TYR81      -0.0009
     45  CE1       -4.4480   32.7030   14.0000 C.ar   81  TYR81       0.0417
     46  CE2       -6.8460   32.6000   14.1510 C.ar   81  TYR81       0.0417
     47  CZ        -5.6120   32.8470   14.7350 C.ar   81  TYR81       0.1957
     48  OH        -5.5450   33.2190   16.0580 O.3    81  TYR81      -0.2866
     49  N         -5.7000   28.2240   15.5320 N.3    83  THR83      -0.1218
     50  CA        -5.5480   28.6810   16.9150 C.3    83  THR83       0.1862
     51  C         -4.7020   27.7750   17.8120 C.2    83  THR83       0.2287
     52  O         -4.2580   28.1960   18.8790 O.2    83  THR83      -0.2866
     53  CB        -6.9120   28.8810   17.5950 C.3    83  THR83       0.1770
     54  OG1       -7.6550   27.6570   17.5470 O.3    83  THR83      -0.2211
     55  CG2       -7.6940   29.9770   16.8900 C.3    83  THR83       0.0375
     56  N         -1.1760   28.3960   15.9940 N.3    86  LEU86      -0.1245
     57  CA        -1.0830   29.8410   15.7980 C.3    86  LEU86       0.1561
     58  C         -0.3340   30.1780   14.5140 C.2    86  LEU86       0.2260
     59  O          0.2120   31.2720   14.3650 O.2    86  LEU86      -0.2867
     60  CB        -0.4280   30.5270   17.0040 C.3    86  LEU86       0.0270
     61  CG        -1.3780   30.7440   18.1880 C.3    86  LEU86       0.0019
     62  CD1       -0.6820   31.5420   19.2660 C.3    86  LEU86       0.0001
     63  CD2       -2.6360   31.4770   17.7240 C.3    86  LEU86       0.0001
     64  N         -1.0010   33.5050   11.1410 N.3    89  ASP89      -0.1239
     65  CA        -1.7330   34.5640   11.8300 C.3    89  ASP89       0.1674
     66  C         -1.6270   35.8320   10.9960 C.2    89  ASP89       0.2266
     67  O         -0.8830   36.7520   11.3300 O.2    89  ASP89      -0.2867
     68  CB        -1.1410   34.7970   13.2180 C.3    89  ASP89       0.1410
     69  CG        -1.9710   35.7560   14.0530 C.2    89  ASP89       0.3668
     70  OD1       -3.1200   36.0690   13.6600 O.co2  89  ASP89      -0.2456
     71  OD2       -1.4770   36.1880   15.1120 O.co2  89  ASP89      -0.2456
     72  N         10.5970   44.9820   23.5590 N.3   176  SER176     -0.1202
     73  CA         9.7960   44.0050   22.8400 C.3   176  SER176      0.2020
     74  C          8.4250   44.5220   22.4270 C.2   176  SER176      0.2619
     75  O          7.9290   45.5120   22.9650 O.2   176  SER176     -0.2717
     76  CB         9.6040   42.7620   23.7190 C.3   176  SER176      0.2103
     77  OG         8.7720   41.7980   23.0990 O.3   176  SER176     -0.2182
     78  N          7.8290   43.8450   21.4510 N.am  177  ALA177     -0.1965
     79  CA         6.4780   44.1640   21.0150 C.3   177  ALA177      0.1728
     80  C          5.6750   43.4740   22.1170 C.2   177  ALA177      0.2616
     81  O          6.1830   42.5470   22.7620 O.2   177  ALA177     -0.2715
     82  CB         6.1810   43.5170   19.6600 C.3   177  ALA177      0.0334
     83  N          4.4400   43.9000   22.3430 N.am  178  PHE178     -0.1960
     84  CA         3.6400   43.2860   23.3980 C.3   178  PHE178      0.1771
     85  C          2.1540   43.4140   23.0620 C.2   178  PHE178      0.2619
     86  O          1.8010   43.8420   21.9590 O.2   178  PHE178     -0.2715
     87  CB         3.9770   43.9540   24.7420 C.3   178  PHE178      0.0574
     88  CG         3.3070   43.3250   25.9330 C.ar  178  PHE178     -0.0200
     89  CD1        3.3090   41.9440   26.1100 C.ar  178  PHE178     -0.0042
     90  CD2        2.6760   44.1210   26.8870 C.ar  178  PHE178     -0.0042
     91  CE1        2.6890   41.3630   27.2180 C.ar  178  PHE178     -0.0003
     92  CE2        2.0540   43.5510   27.9990 C.ar  178  PHE178     -0.0003
     93  CZ         2.0590   42.1720   28.1630 C.ar  178  PHE178     -0.0000
     94  N          1.2920   43.0370   24.0040 N.am  179  LYS179     -0.1963
     95  CA        -0.1500   43.0960   23.7960 C.3   179  LYS179      0.1728
     96  C         -0.6160   44.4290   23.2230 C.2   179  LYS179      0.2616
     97  O         -0.2850   45.4890   23.7450 O.2   179  LYS179     -0.2715
     98  CB        -0.8850   42.8300   25.1070 C.3   179  LYS179      0.0311
     99  CG        -2.3990   42.7920   24.9700 C.3   179  LYS179      0.0038
    100  CD        -3.0590   42.3360   26.2630 C.3   179  LYS179      0.0206
    101  CE        -4.5660   42.2230   26.0990 C.3   179  LYS179      0.1093
    102  NZ        -4.9370   41.2210   25.0600 N.3   179  LYS179     -0.1314
    103  N         -1.3980   44.3670   22.1510 N.am  180  GLY180     -0.1955
    104  CA        -1.9030   45.5830   21.5380 C.3   180  GLY180      0.1869
    105  C         -1.1290   45.9610   20.2950 C.2   180  GLY180      0.2309
    106  O         -1.6300   46.7000   19.4370 O.2   180  GLY180     -0.2863
    107  N         -0.1270   43.7350   18.2450 N.3   182  SER182     -0.1217
    108  CA        -0.5150   42.7040   17.2770 C.3   182  SER182      0.1889
    109  C         -0.9880   43.3020   15.9540 C.2   182  SER182      0.2288
    110  O         -1.6820   44.3180   15.9320 O.2   182  SER182     -0.2866
    111  CB        -1.6350   41.8320   17.8530 C.3   182  SER182      0.2089
    112  OG        -1.2040   41.0930   18.9880 O.3   182  SER182     -0.2183
    113  N          3.2390   41.5550   13.9050 N.3   196  VAL196     -0.1231
    114  CA         3.2190   41.1220   15.2990 C.3   196  VAL196      0.1692
    115  C          2.1130   40.0880   15.4900 C.2   196  VAL196      0.2593
    116  O          0.9510   40.3730   15.2070 O.2   196  VAL196     -0.2718
    117  CB         2.9600   42.3040   16.2530 C.3   196  VAL196      0.0266
    118  CG1        2.8830   41.7960   17.6840 C.3   196  VAL196      0.0020
    119  CG2        4.0670   43.3460   16.1020 C.3   196  VAL196      0.0020
    120  N          2.4710   38.8940   15.9640 N.am  197  SER197     -0.1938
    121  CA         1.4850   37.8340   16.1770 C.3   197  SER197      0.2055
    122  C          1.1880   37.5530   17.6510 C.2   197  SER197      0.2643
    123  O          0.0650   37.7600   18.1030 O.2   197  SER197     -0.2714
    124  CB         1.9340   36.5410   15.4930 C.3   197  SER197      0.2130
    125  OG         0.9790   35.5090   15.6970 O.3   197  SER197     -0.2179
    126  N          2.1780   37.0720   18.4010 N.am  198  TYR198     -0.1959
    127  CA         1.9620   36.7950   19.8190 C.3   198  TYR198      0.1771
    128  C          3.2580   36.6000   20.5840 C.2   198  TYR198      0.2620
    129  O          4.3470   36.6880   20.0150 O.2   198  TYR198     -0.2715
    130  CB         1.0650   35.5630   20.0000 C.3   198  TYR198      0.0574
    131  CG         1.7540   34.2260   19.7990 C.ar  198  TYR198     -0.0198
    132  CD1        2.1600   33.4530   20.8930 C.ar  198  TYR198     -0.0009
    133  CD2        1.9650   33.7140   18.5170 C.ar  198  TYR198     -0.0009
    134  CE1        2.7520   32.2050   20.7130 C.ar  198  TYR198      0.0417
    135  CE2        2.5510   32.4640   18.3290 C.ar  198  TYR198      0.0417
    136  CZ         2.9420   31.7170   19.4270 C.ar  198  TYR198      0.1957
    137  OH         3.5100   30.4770   19.2310 O.3   198  TYR198     -0.2866
    138  N          3.1310   36.3370   21.8810 N.am  199  GLY199     -0.1940
    139  CA         4.2990   36.1370   22.7180 C.3   199  GLY199      0.2014
    140  C          3.9060   35.7800   24.1390 C.2   199  GLY199      0.2639
    141  O          2.7840   35.3560   24.3890 O.2   199  GLY199     -0.2714
    142  N          4.8280   35.9570   25.0750 N.am  200  ARG200     -0.1963
    143  CA         4.5610   35.6410   26.4700 C.3   200  ARG200      0.1729
    144  C          3.6680   36.6780   27.1440 C.2   200  ARG200      0.2616
    145  O          3.7530   37.8770   26.8710 O.2   200  ARG200     -0.2715
    146  CB         5.8770   35.5130   27.2400 C.3   200  ARG200      0.0348
    147  CG         6.7350   34.3290   26.8170 C.3   200  ARG200      0.0492
    148  CD         8.0620   34.3620   27.5530 C.3   200  ARG200      0.2205
    149  NE         7.8850   34.1580   28.9870 N.pl3 200  ARG200     -0.0865
    150  CZ         7.7910   32.9650   29.5650 C.cat 200  ARG200      0.5346
    151  NH1        7.8650   31.8620   28.8320 N.pl3 200  ARG200      0.1354
    152  NH2        7.6110   32.8740   30.8750 N.pl3 200  ARG200      0.1354
    153  N          2.7980   36.1990   28.0250 N.am  201  SER201     -0.1950
    154  CA         1.8910   37.0690   28.7500 C.3   201  SER201      0.1924
    155  C          2.6760   37.9530   29.7090 C.2   201  SER201      0.2314
    156  O          2.1960   39.0070   30.1280 O.2   201  SER201     -0.2863
    157  CB         0.8790   36.2330   29.5340 C.3   201  SER201      0.2116
    158  OG         1.5440   35.4060   30.4740 O.3   201  SER201     -0.2180
    159  N          5.3420   39.4330   28.9180 N.3   203  ALA203     -0.1245
    160  CA         6.0370   40.3890   28.0490 C.3   203  ALA203      0.1562
    161  C          7.5310   40.2090   27.8080 C.2   203  ALA203      0.2260
    162  O          8.1760   41.1130   27.2850 O.2   203  ALA203     -0.2867
    163  CB         5.7830   41.8090   28.5560 C.3   203  ALA203      0.0290
    164  N          9.4260   37.6340   20.7500 N.3   207  ALA207     -0.1245
    165  CA         8.0130   37.4950   20.4260 C.3   207  ALA207      0.1562
    166  C          7.9130   36.8500   19.0470 C.2   207  ALA207      0.2260
    167  O          8.8970   36.7890   18.3090 O.2   207  ALA207     -0.2867
    168  CB         7.3330   38.8580   20.4250 C.3   207  ALA207      0.0290
@<TRIPOS>BOND
     1    37    38    1
     2    38    41    1
     3    38    39    1
     4    41    42    1
     5    66    67    2
     6    66    65    1
     7    64    65    1
     8    40    39    2
     9    65    68    1
    10    42    43   ar
    11    42    44   ar
    12    43    45   ar
    13    44    46   ar
    14    68    69    1
    15    70    69   ar
    16   113   114    1
    17    45    47   ar
    18    69    71   ar
    19    46    47   ar
    20    27    28    1
    21    59    58    2
    22    58    57    1
    23    47    48    1
    24   116   115    2
    25   114   115    1
    26   114   117    1
    27   115   120   am
    28   124   125    1
    29   124   121    1
    30    28    29    1
    31    28    31    1
    32    49    50    1
    33    57    56    1
    34    57    60    1
    35    29    30    2
    36    24    23    2
    37   110   109    2
    38   109   108    1
    39   120   121    1
    40   119   117    1
    41   121   122    1
    42    23    22    1
    43    25    22    1
    44    25    26    1
    45   117   118    1
    46    31    32    1
    47    33    32   ar
    48    33    35   ar
    49    55    53    1
    50    50    53    1
    51    50    51    1
    52    60    61    1
    53    32    34   ar
    54    22    21    1
    55   108   111    1
    56   108   107    1
    57    35    36   ar
    58    54    53    1
    59   122   123    2
    60   122   126   am
    61    63    61    1
    62    21    12   am
    63    51    52    2
    64    34    36   ar
    65   111   112    1
    66    61    62    1
    67   167   166    2
    68   135   133   ar
    69   135   136   ar
    70   126   127    1
    71   133   131   ar
    72    12    11    1
    73    12    13    2
    74   166   165    1
    75   137   136    1
    76     4     3    2
    77    11    14    1
    78    11    10    1
    79   136   134   ar
    80   106   105    2
    81    82    79    1
    82    14    15    1
    83     8     9    1
    84     8     7    1
    85   131   130    1
    86   131   132   ar
    87   127   130    1
    88   127   128    1
    89   129   128    2
    90   105   104    1
    91     6     7    1
    92     6     5    1
    93     3    10   am
    94     3     2    1
    95   168   165    1
    96   165   164    1
    97    17    15   ar
    98    17    19   ar
    99   128   138   am
   100   134   132   ar
   101    15    16   ar
   102    79    78    1
   103    79    80    1
   104     1     2    1
   105    19    20   ar
   106    78    74   am
   107     2     5    1
   108   104   103    1
   109   138   139    1
   110    86    85    2
   111    80    83   am
   112    80    81    2
   113   103    96   am
   114    16    18   ar
   115    83    84    1
   116    74    73    1
   117    74    75    2
   118   139   140    1
   119    20    18   ar
   120    73    72    1
   121    73    76    1
   122    85    84    1
   123    85    94   am
   124    77    76    1
   125    96    97    2
   126    96    95    1
   127    84    87    1
   128    95    94    1
   129    95    98    1
   130   140   141    2
   131   140   142   am
   132    87    88    1
   133    99    98    1
   134    99   100    1
   135   102   101    1
   136   142   143    1
   137    88    89   ar
   138    88    90   ar
   139   101   100    1
   140    89    91   ar
   141   143   144    1
   142   143   146    1
   143   147   146    1
   144   147   148    1
   145   145   144    2
   146    90    92   ar
   147   144   153   am
   148    91    93   ar
   149   162   161    2
   150   148   149    1
   151   161   160    1
   152    92    93   ar
   153   153   154    1
   154   160   163    1
   155   160   159    1
   156   154   157    1
   157   154   155    1
   158   151   150    1
   159   149   150    2
   160   157   158    1
   161   150   152    1
   162   155   156    2
