@<TRIPOS>MOLECULE
tmp/1t32A00.pdb
 195 189 0 0 0
SMALL
GASTEIGER

@<TRIPOS>ATOM
      1  N          4.5030   63.9540   13.1350 N.3    27  SER27      -0.1202
      2  CA         5.6890   64.2990   12.3460 C.3    27  SER27       0.2020
      3  C          6.4650   63.0510   11.9010 C.2    27  SER27       0.2619
      4  O          6.7660   62.1700   12.7070 O.2    27  SER27      -0.2717
      5  CB         6.6030   65.2170   13.1560 C.3    27  SER27       0.2103
      6  OG         7.6570   65.7190   12.3590 O.3    27  SER27      -0.2182
      7  N          6.8020   62.9950   10.6160 N.am   28  ARG28      -0.1965
      8  CA         7.5150   61.8560   10.0360 C.3    28  ARG28       0.1729
      9  C          8.8710   62.2030    9.4080 C.2    28  ARG28       0.2616
     10  O          8.9930   63.2030    8.6920 O.2    28  ARG28      -0.2715
     11  CB         6.6280   61.2020    8.9690 C.3    28  ARG28       0.0348
     12  CG         7.3600   60.2690    8.0110 C.3    28  ARG28       0.0492
     13  CD         6.5020   59.9070    6.7850 C.3    28  ARG28       0.2205
     14  NE         5.1960   59.3730    7.1690 N.pl3  28  ARG28      -0.0865
     15  CZ         4.5830   58.3630    6.5570 C.cat  28  ARG28       0.5346
     16  NH1        5.1530   57.7590    5.5200 N.pl3  28  ARG28       0.1354
     17  NH2        3.3990   57.9480    6.9910 N.pl3  28  ARG28       0.1354
     18  N          9.8770   61.3630    9.6650 N.am   29  CYS29      -0.1968
     19  CA        11.2170   61.5510    9.1050 C.3    29  CYS29       0.1712
     20  C         11.8970   60.2220    8.8250 C.2    29  CYS29       0.2296
     21  O         11.4510   59.1640    9.2780 O.2    29  CYS29      -0.2864
     22  CB        12.1160   62.3600   10.0630 C.3    29  CYS29       0.0983
     23  SG        11.9470   64.1710    9.9300 S.3    29  CYS29      -0.0798
     24  N         16.5860   68.9490   12.0500 N.3    44  HIS44      -0.1241
     25  CA        15.3000   69.6310   12.0190 C.3    44  HIS44       0.1621
     26  C         14.1590   68.6500   12.3380 C.2    44  HIS44       0.2264
     27  O         12.9990   69.0510   12.4580 O.2    44  HIS44      -0.2867
     28  CB        15.0570   70.3500   10.6690 C.3    44  HIS44       0.0745
     29  CG        14.6140   69.4470    9.5560 C.ar   44  HIS44       0.0817
     30  ND1       15.4510   69.0620    8.5310 N.ar   44  HIS44      -0.2268
     31  CD2       13.4200   68.8570    9.3090 C.ar   44  HIS44       0.1154
     32  CE1       14.7940   68.2750    7.7000 C.ar   44  HIS44       0.1986
     33  NE2       13.5580   68.1330    8.1470 N.ar   44  HIS44      -0.2212
     34  N         23.7070   73.5000   15.0850 N.3    80  TYR80      -0.1241
     35  CA        22.5310   73.4130   14.2220 C.3    80  TYR80       0.1605
     36  C         21.7640   74.7280   14.3180 C.2    80  TYR80       0.2264
     37  O         21.4560   75.2020   15.4090 O.2    80  TYR80      -0.2867
     38  CB        21.6200   72.2560   14.6520 C.3    80  TYR80       0.0534
     39  CG        20.2490   72.3310   14.0270 C.ar   80  TYR80      -0.0201
     40  CD1       20.0940   72.2930   12.6460 C.ar   80  TYR80      -0.0009
     41  CD2       19.1110   72.4920   14.8160 C.ar   80  TYR80      -0.0009
     42  CE1       18.8400   72.4180   12.0630 C.ar   80  TYR80       0.0417
     43  CE2       17.8570   72.6150   14.2430 C.ar   80  TYR80       0.0417
     44  CZ        17.7280   72.5790   12.8660 C.ar   80  TYR80       0.1957
     45  OH        16.4870   72.7000   12.2850 O.3    80  TYR80      -0.2866
     46  N         18.3340   76.2720   13.0400 N.3    82  GLN82      -0.1231
     47  CA        17.0510   76.0000   12.3990 C.3    82  GLN82       0.1698
     48  C         16.5880   77.1010   11.4540 C.2    82  GLN82       0.2592
     49  O         15.7980   76.8530   10.5490 O.2    82  GLN82      -0.2718
     50  CB        15.9690   75.7300   13.4500 C.3    82  GLN82       0.0381
     51  CG        15.1590   76.9440   13.8870 C.3    82  GLN82       0.0905
     52  CD        14.0110   76.5660   14.8170 C.2    82  GLN82       0.2608
     53  OE1       13.1410   77.3890   15.1160 O.2    82  GLN82      -0.2717
     54  NE2       14.0080   75.3180   15.2840 N.am   82  GLN82      -0.0878
     55  N         17.0860   78.3140   11.6550 N.am   83  ARG83      -0.1980
     56  CA        16.7000   79.4270   10.7980 C.3    83  ARG83       0.1597
     57  C         17.3460   79.3260    9.4190 C.2    83  ARG83       0.2287
     58  O         16.6870   79.5200    8.4020 O.2    83  ARG83      -0.2864
     59  CB        17.0900   80.7500   11.4550 C.3    83  ARG83       0.0334
     60  CG        16.7450   81.9840   10.6380 C.3    83  ARG83       0.0492
     61  CD        16.9880   83.2400   11.4660 C.3    83  ARG83       0.2205
     62  NE        18.3670   83.3070   11.9420 N.pl3  83  ARG83      -0.0865
     63  CZ        19.4170   83.5410   11.1620 C.cat  83  ARG83       0.5346
     64  NH1       19.2480   83.7370    9.8620 N.pl3  83  ARG83       0.1354
     65  NH2       20.6400   83.5820   11.6820 N.pl3  83  ARG83       0.1354
     66  N         19.0910   76.5240    8.5490 N.3    85  ILE85      -0.1245
     67  CA        19.1350   75.0810    8.3020 C.3    85  ILE85       0.1561
     68  C         20.5640   74.5690    8.0920 C.2    85  ILE85       0.2260
     69  O         20.7900   73.6060    7.3550 O.2    85  ILE85      -0.2867
     70  CB        18.2800   74.6710    7.0770 C.3    85  ILE85       0.0252
     71  CG1       16.9380   75.4140    7.0960 C.3    85  ILE85       0.0019
     72  CG2       17.9720   73.1710    7.1480 C.3    85  ILE85       0.0019
     73  CD1       16.0800   75.1580    5.8380 C.3    85  ILE85       0.0001
     74  N         20.7060   79.3370   -5.6930 N.3   155  ILE155     -0.1231
     75  CA        19.3360   79.1200   -5.2410 C.3   155  ILE155      0.1692
     76  C         19.1020   79.2300   -3.7360 C.2   155  ILE155      0.2592
     77  O         18.1510   79.8770   -3.3010 O.2   155  ILE155     -0.2718
     78  CB        18.8340   77.7250   -5.6940 C.3   155  ILE155      0.0266
     79  CG1       18.9290   77.6120   -7.2170 C.3   155  ILE155      0.0019
     80  CG2       17.4020   77.5000   -5.2270 C.3   155  ILE155      0.0020
     81  CD1       18.6200   76.2250   -7.7400 C.3   155  ILE155      0.0001
     82  N         19.9640   78.5900   -2.9480 N.am  156  PHE156     -0.1962
     83  CA        19.8130   78.5700   -1.4930 C.3   156  PHE156      0.1771
     84  C         20.7970   79.4760   -0.7580 C.2   156  PHE156      0.2620
     85  O         22.0110   79.3290   -0.8760 O.2   156  PHE156     -0.2715
     86  CB        19.9380   77.1210   -1.0020 C.3   156  PHE156      0.0574
     87  CG        18.9460   76.1850   -1.6440 C.ar  156  PHE156     -0.0200
     88  CD1       17.5910   76.2570   -1.3250 C.ar  156  PHE156     -0.0042
     89  CD2       19.3570   75.2740   -2.6100 C.ar  156  PHE156     -0.0042
     90  CE1       16.6570   75.4310   -1.9690 C.ar  156  PHE156     -0.0003
     91  CE2       18.4340   74.4460   -3.2590 C.ar  156  PHE156     -0.0003
     92  CZ        17.0820   74.5280   -2.9350 C.ar  156  PHE156     -0.0000
     93  N         20.2420   80.3880    0.0310 N.am  157  GLY157     -0.1954
     94  CA        21.0280   81.3650    0.7660 C.3   157  GLY157      0.1869
     95  C         22.2790   81.0350    1.5640 C.2   157  GLY157      0.2309
     96  O         23.3280   81.6330    1.3230 O.2   157  GLY157     -0.2863
     97  N         14.3900   63.7720   -3.4660 N.3   176  ALA176     -0.1231
     98  CA        13.9280   63.4020   -2.1310 C.3   176  ALA176      0.1694
     99  C         12.9210   64.5190   -1.8620 C.2   176  ALA176      0.2592
    100  O         13.0530   65.6170   -2.4160 O.2   176  ALA176     -0.2718
    101  CB        15.0700   63.4670   -1.1250 C.3   176  ALA176      0.0304
    102  N         11.9210   64.2590   -1.0310 N.am  177  PHE177     -0.1962
    103  CA        10.9060   65.2720   -0.7810 C.3   177  PHE177      0.1771
    104  C         10.4500   65.2640    0.6810 C.2   177  PHE177      0.2619
    105  O         11.0880   64.6400    1.5300 O.2   177  PHE177     -0.2715
    106  CB         9.7320   65.0230   -1.7430 C.3   177  PHE177      0.0574
    107  CG         8.7560   66.1600   -1.8360 C.ar  177  PHE177     -0.0200
    108  CD1        9.1920   67.4840   -1.8320 C.ar  177  PHE177     -0.0042
    109  CD2        7.3910   65.9020   -1.9550 C.ar  177  PHE177     -0.0042
    110  CE1        8.2730   68.5420   -1.9420 C.ar  177  PHE177     -0.0003
    111  CE2        6.4670   66.9430   -2.0680 C.ar  177  PHE177     -0.0003
    112  CZ         6.9070   68.2650   -2.0620 C.ar  177  PHE177     -0.0000
    113  N          9.3630   65.9710    0.9720 N.am  178  LYS178     -0.1963
    114  CA         8.8410   66.0470    2.3350 C.3   178  LYS178      0.1728
    115  C          8.6610   64.6550    2.9420 C.2   178  LYS178      0.2616
    116  O          8.0500   63.7750    2.3310 O.2   178  LYS178     -0.2715
    117  CB         7.5100   66.7970    2.3430 C.3   178  LYS178      0.0311
    118  CG         6.9810   67.0810    3.7530 C.3   178  LYS178      0.0038
    119  CD         5.6720   67.8590    3.7050 C.3   178  LYS178      0.0206
    120  CE         5.5470   68.8210    4.8830 C.3   178  LYS178      0.1093
    121  NZ         5.5880   68.1330    6.1910 N.3   178  LYS178     -0.1314
    122  N          9.2090   64.4410    4.1350 N.am  179  GLY179     -0.1955
    123  CA         9.0680   63.1350    4.7530 C.3   179  GLY179      0.1869
    124  C         10.2920   62.2600    4.5480 C.2   179  GLY179      0.2309
    125  O         10.4820   61.2880    5.2750 O.2   179  GLY179     -0.2863
    126  N         13.2400   63.5990    4.7180 N.3   181  SER181     -0.1217
    127  CA        14.2240   64.2850    5.5650 C.3   181  SER181      0.1889
    128  C         14.8690   63.2970    6.5250 C.2   181  SER181      0.2288
    129  O         14.1810   62.4680    7.1260 O.2   181  SER181     -0.2866
    130  CB        13.5430   65.3900    6.3800 C.3   181  SER181      0.2089
    131  OG        12.9160   66.3440    5.5360 O.3   181  SER181     -0.2183
    132  N         19.1130   63.7120    3.8610 N.3   195  VAL195     -0.1231
    133  CA        18.1380   64.6050    3.2320 C.3   195  VAL195      0.1692
    134  C         17.8740   65.7610    4.1930 C.2   195  VAL195      0.2593
    135  O         17.4990   65.5450    5.3530 O.2   195  VAL195     -0.2718
    136  CB        16.8110   63.8640    2.9210 C.3   195  VAL195      0.0266
    137  CG1       15.7720   64.8360    2.3730 C.3   195  VAL195      0.0020
    138  CG2       17.0720   62.7550    1.9150 C.3   195  VAL195      0.0020
    139  N         18.0830   66.9870    3.7180 N.am  196  SER196     -0.1938
    140  CA        17.8840   68.1630    4.5560 C.3   196  SER196      0.2055
    141  C         16.6890   69.0010    4.0830 C.2   196  SER196      0.2643
    142  O         15.6730   69.0930    4.7820 O.2   196  SER196     -0.2714
    143  CB        19.1720   69.0050    4.5770 C.3   196  SER196      0.2130
    144  OG        19.0750   70.0740    5.5050 O.3   196  SER196     -0.2179
    145  N         16.7980   69.6180    2.9100 N.am  197  TYR197     -0.1959
    146  CA        15.6790   70.4030    2.3890 C.3   197  TYR197      0.1771
    147  C         15.8240   70.7640    0.9200 C.2   197  TYR197      0.2620
    148  O         16.8300   70.4410    0.2810 O.2   197  TYR197     -0.2715
    149  CB        15.4760   71.6910    3.2040 C.3   197  TYR197      0.0574
    150  CG        16.5150   72.7620    2.9700 C.ar  197  TYR197     -0.0198
    151  CD1       17.8010   72.6420    3.4970 C.ar  197  TYR197     -0.0009
    152  CD2       16.2130   73.9000    2.2110 C.ar  197  TYR197     -0.0009
    153  CE1       18.7670   73.6280    3.2810 C.ar  197  TYR197      0.0417
    154  CE2       17.1710   74.8920    1.9870 C.ar  197  TYR197      0.0417
    155  CZ        18.4470   74.7470    2.5280 C.ar  197  TYR197      0.1957
    156  OH        19.3960   75.7210    2.3270 O.3   197  TYR197     -0.2866
    157  N         14.8010   71.4330    0.3950 N.am  198  GLY198     -0.1940
    158  CA        14.7900   71.8600   -0.9970 C.3   198  GLY198      0.2014
    159  C         13.5690   72.7390   -1.1890 C.2   198  GLY198      0.2639
    160  O         12.9440   73.1180   -0.2080 O.2   198  GLY198     -0.2714
    161  N         13.2160   73.0620   -2.4280 N.am  199  LYS199     -0.1963
    162  CA        12.0460   73.9000   -2.6860 C.3   199  LYS199      0.1728
    163  C         10.7700   73.1410   -2.3130 C.2   199  LYS199      0.2616
    164  O         10.7160   71.9100   -2.4160 O.2   199  LYS199     -0.2715
    165  CB        12.0050   74.3120   -4.1660 C.3   199  LYS199      0.0311
    166  CG        13.2070   75.1370   -4.6030 C.3   199  LYS199      0.0038
    167  CD        13.0570   75.7060   -6.0160 C.3   199  LYS199      0.0206
    168  CE        12.9820   74.6030   -7.0640 C.3   199  LYS199      0.1093
    169  NZ        13.0980   75.1270   -8.4620 N.3   199  LYS199     -0.1314
    170  N          9.7390   73.8640   -1.8850 N.am  200  SER200     -0.1950
    171  CA         8.4950   73.2040   -1.4820 C.3   200  SER200      0.1924
    172  C          7.8170   72.4920   -2.6470 C.2   200  SER200      0.2314
    173  O          6.9380   71.6500   -2.4440 O.2   200  SER200     -0.2863
    174  CB         7.5280   74.2110   -0.8380 C.3   200  SER200      0.2116
    175  OG         7.1190   75.1980   -1.7580 O.3   200  SER200     -0.2180
    176  N          9.5040   70.6160   -4.7090 N.3   202  GLY202     -0.1225
    177  CA        10.1950   69.3500   -4.8800 C.3   202  GLY202      0.1811
    178  C         11.0650   69.3250   -6.1270 C.2   202  GLY202      0.2280
    179  O         11.6630   68.3020   -6.4640 O.2   202  GLY202     -0.2866
    180  N         18.3790   70.1530   -4.7970 N.3   206  GLU206     -0.1231
    181  CA        17.9790   70.1520   -3.3920 C.3   206  GLU206      0.1699
    182  C         19.2460   69.9980   -2.5490 C.2   206  GLU206      0.2592
    183  O         20.3160   69.6680   -3.0710 O.2   206  GLU206     -0.2718
    184  CB        16.9680   69.0300   -3.1050 C.3   206  GLU206      0.0402
    185  CG        17.4320   67.6300   -3.4530 C.3   206  GLU206      0.1161
    186  CD        16.3430   66.5920   -3.2460 C.2   206  GLU206      0.3649
    187  OE1       15.1960   66.9820   -2.9360 O.co2 206  GLU206     -0.2457
    188  OE2       16.6220   65.3840   -3.3990 O.co2 206  GLU206     -0.2457
    189  N         19.1230   70.2440   -1.2530 N.am  207  VAL207     -0.1980
    190  CA        20.2610   70.1990   -0.3420 C.3   207  VAL207      0.1595
    191  C         20.3020   69.0080    0.6130 C.2   207  VAL207      0.2287
    192  O         19.2960   68.6510    1.2200 O.2   207  VAL207     -0.2864
    193  CB        20.3020   71.4940    0.4990 C.3   207  VAL207      0.0276
    194  CG1       21.4590   71.4550    1.4800 C.3   207  VAL207      0.0022
    195  CG2       20.4210   72.7070   -0.4250 C.3   207  VAL207      0.0022
@<TRIPOS>BOND
     1   169   168    1
     2    81    79    1
     3    79    78    1
     4   168   167    1
     5   179   178    2
     6   178   177    1
     7   167   166    1
     8    78    75    1
     9    78    80    1
    10    74    75    1
    11    75    76    1
    12   177   176    1
    13   180   181    1
    14   166   165    1
    15   165   162    1
    16    76    77    2
    17    76    82   am
    18    97    98    1
    19   185   186    1
    20   185   184    1
    21   188   186   ar
    22   181   184    1
    23   181   182    1
    24    91    92   ar
    25    91    89   ar
    26   186   187   ar
    27   183   182    2
    28    82    83    1
    29    92    90   ar
    30   162   161    1
    31   162   163    1
    32   172   173    2
    33   172   171    1
    34    89    87   ar
    35   182   189   am
    36   161   159   am
    37   164   163    2
    38   100    99    2
    39   163   170   am
    40    98    99    1
    41    98   101    1
    42   111   112   ar
    43   111   109   ar
    44   112   110   ar
    45    90    88   ar
    46   109   107   ar
    47   110   108   ar
    48   170   171    1
    49    99   102   am
    50   107   108   ar
    51   107   106    1
    52   175   174    1
    53   106   103    1
    54    87    88   ar
    55    87    86    1
    56    83    86    1
    57    83    84    1
    58   171   174    1
    59   189   190    1
    60   159   158    1
    61   159   160    2
    62   102   103    1
    63   158   157    1
    64    85    84    2
    65   103   104    1
    66    84    93   am
    67   195   193    1
    68   190   193    1
    69   190   191    1
    70    93    94    1
    71   148   147    2
    72   157   147   am
    73   193   194    1
    74   191   192    2
    75   104   113   am
    76   104   105    2
    77    94    95    1
    78   147   146    1
    79   113   114    1
    80    96    95    2
    81   138   136    1
    82   154   152   ar
    83   154   155   ar
    84   152   150   ar
    85   156   155    1
    86   116   115    2
    87   114   117    1
    88   114   115    1
    89   117   118    1
    90   137   136    1
    91   146   145    1
    92   146   149    1
    93   155   153   ar
    94   145   141   am
    95   136   133    1
    96   115   122   am
    97   150   149    1
    98   150   151   ar
    99   133   132    1
   100   133   134    1
   101   153   151   ar
   102   119   118    1
   103   119   120    1
   104   139   134   am
   105   139   140    1
   106   141   140    1
   107   141   142    2
   108   122   123    1
   109   134   135    2
   110   124   123    1
   111   124   125    2
   112   140   143    1
   113   143   144    1
   114   126   127    1
   115   120   121    1
   116    16    15    1
   117   131   130    1
   118   127   130    1
   119   127   128    1
   120    73    71    1
   121   128   129    2
   122    15    17    1
   123    15    14    2
   124    13    14    1
   125    13    12    1
   126    70    71    1
   127    70    72    1
   128    70    67    1
   129    69    68    2
   130    32    33   ar
   131    32    30   ar
   132    12    11    1
   133    68    67    1
   134    33    31   ar
   135    67    66    1
   136    58    57    2
   137    30    29   ar
   138    10     9    2
   139    20    19    1
   140    20    21    2
   141    11     8    1
   142    19    18    1
   143    19    22    1
   144    31    29   ar
   145     9    18   am
   146     9     8    1
   147    57    56    1
   148    29    28    1
   149    64    63    1
   150    23    22    1
   151     8     7    1
   152    49    48    2
   153     7     3   am
   154    60    59    1
   155    60    61    1
   156    28    25    1
   157    56    59    1
   158    56    55    1
   159    63    65    1
   160    63    62    2
   161    48    55   am
   162    48    47    1
   163    61    62    1
   164     3     2    1
   165     3     4    2
   166    25    24    1
   167    25    26    1
   168    42    40   ar
   169    42    44   ar
   170    45    44    1
   171    26    27    2
   172     2     1    1
   173     2     5    1
   174     6     5    1
   175    47    46    1
   176    47    50    1
   177    40    39   ar
   178    44    43   ar
   179    50    51    1
   180    51    52    1
   181    39    38    1
   182    39    41   ar
   183    35    36    1
   184    35    38    1
   185    35    34    1
   186    43    41   ar
   187    36    37    2
   188    52    53    2
   189    52    54   am
