@<TRIPOS>MOLECULE
tmp/1t3eB00.pdb
 141 135 0 0 0
SMALL
GASTEIGER

@<TRIPOS>ATOM
      1  N          7.2710  121.5360  -26.2950 N.3     9  MET9       -0.1230
      2  CA         7.3660  121.9210  -24.8920 C.3     9  MET9        0.1702
      3  C          7.0650  123.4020  -24.7140 C.2     9  MET9        0.2592
      4  O          6.1770  123.7740  -23.9510 O.2     9  MET9       -0.2718
      5  CB         8.7590  121.5910  -24.3560 C.3     9  MET9        0.0401
      6  CG         8.9490  121.8820  -22.8890 C.3     9  MET9        0.0596
      7  SD         7.6190  121.2210  -21.8750 S.3     9  MET9       -0.1393
      8  CE         7.3500  122.5860  -20.7660 C.3     9  MET9        0.0692
      9  N          7.8000  124.2360  -25.4420 N.am   10  ASP10      -0.1974
     10  CA         7.6080  125.6690  -25.3850 C.3    10  ASP10       0.1709
     11  C          6.2270  126.0750  -25.8620 C.2    10  ASP10       0.2293
     12  O          5.5870  126.9060  -25.2320 O.2    10  ASP10      -0.2864
     13  CB         8.6920  126.3800  -26.1740 C.3    10  ASP10       0.1436
     14  CG         9.9260  126.6370  -25.3430 C.2    10  ASP10       0.3671
     15  OD1       10.0340  127.7450  -24.7800 O.co2  10  ASP10      -0.2456
     16  OD2       10.8330  125.7920  -25.1790 O.co2  10  ASP10      -0.2456
     17  N         14.2320  130.9420  -13.2980 N.3   325  ILE325     -0.1245
     18  CA        15.1510  129.9070  -13.7320 C.3   325  ILE325      0.1561
     19  C         16.5510  130.3830  -13.4210 C.2   325  ILE325      0.2260
     20  O         16.9830  131.3970  -13.9470 O.2   325  ILE325     -0.2867
     21  CB        15.0330  129.6520  -15.2450 C.3   325  ILE325      0.0252
     22  CG1       13.6120  129.2550  -15.6330 C.3   325  ILE325      0.0019
     23  CG2       16.0020  128.5690  -15.6690 C.3   325  ILE325      0.0019
     24  CD1       13.3110  129.4410  -17.1130 C.3   325  ILE325      0.0001
     25  N         20.8450  129.3950  -12.8550 N.3   327  LYS327     -0.1245
     26  CA        21.8940  128.5210  -13.3680 C.3   327  LYS327      0.1561
     27  C         22.5050  127.7950  -12.1930 C.2   327  LYS327      0.2260
     28  O         22.6920  128.3990  -11.1330 O.2   327  LYS327     -0.2867
     29  CB        22.9660  129.3240  -14.1100 C.3   327  LYS327      0.0271
     30  CG        22.5330  129.8540  -15.4760 C.3   327  LYS327      0.0035
     31  CD        22.9220  128.9040  -16.6000 C.3   327  LYS327      0.0206
     32  CE        22.4990  129.4300  -17.9650 C.3   327  LYS327      0.1093
     33  NZ        21.0260  129.3210  -18.1900 N.3   327  LYS327     -0.1314
     34  N         20.9710  111.9740  -21.0480 N.3   336  LEU336     -0.1245
     35  CA        19.9490  112.8110  -21.6790 C.3   336  LEU336      0.1561
     36  C         18.9830  111.9790  -22.5130 C.2   336  LEU336      0.2260
     37  O         19.3520  110.9310  -23.0520 O.2   336  LEU336     -0.2867
     38  CB        20.5800  113.9220  -22.5240 C.3   336  LEU336      0.0270
     39  CG        20.8700  115.2550  -21.8300 C.3   336  LEU336      0.0019
     40  CD1       22.1930  115.1910  -21.1070 C.3   336  LEU336      0.0001
     41  CD2       20.8980  116.3820  -22.8310 C.3   336  LEU336      0.0001
     42  N         12.6840  116.8220  -16.8390 N.3   342  TYR342     -0.1241
     43  CA        12.6160  117.6740  -15.6550 C.3   342  TYR342      0.1605
     44  C         12.7050  116.8400  -14.3970 C.2   342  TYR342      0.2264
     45  O         11.8500  115.9770  -14.1460 O.2   342  TYR342     -0.2867
     46  CB        11.3360  118.5060  -15.6240 C.3   342  TYR342      0.0534
     47  CG        11.1260  119.3440  -16.8510 C.ar  342  TYR342     -0.0201
     48  CD1       10.2660  118.9170  -17.8600 C.ar  342  TYR342     -0.0009
     49  CD2       11.7870  120.5580  -17.0050 C.ar  342  TYR342     -0.0009
     50  CE1       10.0730  119.6650  -18.9850 C.ar  342  TYR342      0.0417
     51  CE2       11.6070  121.3100  -18.1260 C.ar  342  TYR342      0.0417
     52  CZ        10.7480  120.8580  -19.1140 C.ar  342  TYR342      0.1957
     53  OH        10.5570  121.6050  -20.2440 O.3   342  TYR342     -0.2866
     54  N         16.1580  121.4420  -15.3770 N.3   380  MET380     -0.1230
     55  CA        15.7470  121.5230  -16.7770 C.3   380  MET380      0.1702
     56  C         16.7810  120.9450  -17.7500 C.2   380  MET380      0.2592
     57  O         17.5460  121.6910  -18.3800 O.2   380  MET380     -0.2718
     58  CB        15.4630  122.9690  -17.1670 C.3   380  MET380      0.0401
     59  CG        14.7940  123.7960  -16.1120 C.3   380  MET380      0.0596
     60  SD        14.4200  125.4270  -16.7510 S.3   380  MET380     -0.1393
     61  CE        12.7690  125.1770  -17.3920 C.3   380  MET380      0.0692
     62  N         16.7930  119.6210  -17.8810 N.am  381  LEU381     -0.1966
     63  CA        17.6690  118.9550  -18.8360 C.3   381  LEU381      0.1713
     64  C         17.1890  119.1880  -20.2680 C.2   381  LEU381      0.2458
     65  O         15.9820  119.2000  -20.5120 O.2   381  LEU381     -0.2730
     66  CB        17.7310  117.4630  -18.5370 C.3   381  LEU381      0.0310
     67  CG        18.3030  117.1040  -17.1680 C.3   381  LEU381      0.0022
     68  CD1       18.2520  115.5910  -16.9660 C.3   381  LEU381      0.0001
     69  CD2       19.7220  117.6370  -16.9960 C.3   381  LEU381      0.0001
     70  N         18.1190  119.3900  -21.2060 N.am  382  PRO382     -0.2716
     71  CA        17.7630  119.6150  -22.6100 C.3   382  PRO382      0.1521
     72  C         17.6060  118.2940  -23.3680 C.2   382  PRO382      0.2440
     73  O         18.0580  117.2700  -22.8570 O.2   382  PRO382     -0.2731
     74  CB        18.9700  120.3860  -23.1370 C.3   382  PRO382      0.0310
     75  CG        20.1150  119.8440  -22.3570 C.3   382  PRO382      0.0237
     76  CD        19.5810  119.4370  -21.0100 C.3   382  PRO382      0.0939
     77  N         16.9470  118.3030  -24.5260 N.am  383  PRO383     -0.2727
     78  CA        16.9330  117.1350  -25.4130 C.3   383  PRO383      0.1402
     79  C         18.3300  116.7730  -25.9280 C.2   383  PRO383      0.2269
     80  O         19.1420  117.6790  -26.1560 O.2   383  PRO383     -0.2865
     81  CB        16.0270  117.5820  -26.5630 C.3   383  PRO383      0.0296
     82  CG        15.9950  119.0590  -26.4850 C.3   383  PRO383      0.0237
     83  CD        16.1060  119.3950  -25.0440 C.3   383  PRO383      0.0939
     84  N         21.4220  115.8780  -28.1860 N.3   385  THR385     -0.1218
     85  CA        21.8210  116.4270  -29.4720 C.3   385  THR385      0.1862
     86  C         22.7590  115.5030  -30.2130 C.2   385  THR385      0.2287
     87  O         23.4670  114.6870  -29.6160 O.2   385  THR385     -0.2866
     88  CB        22.5060  117.8030  -29.2970 C.3   385  THR385      0.1770
     89  OG1       22.1020  118.3980  -28.0580 O.3   385  THR385     -0.2211
     90  CG2       21.9970  118.7890  -30.3400 C.3   385  THR385      0.0375
     91  N         25.5860  116.0160  -28.3320 N.3   388  TYR388     -0.1241
     92  CA        25.5160  115.8400  -26.8810 C.3   388  TYR388      0.1605
     93  C         24.6890  114.6320  -26.4350 C.2   388  TYR388      0.2264
     94  O         23.5400  114.4590  -26.8470 O.2   388  TYR388     -0.2867
     95  CB        24.9760  117.1120  -26.2260 C.3   388  TYR388      0.0534
     96  CG        25.9920  118.2270  -26.0750 C.ar  388  TYR388     -0.0201
     97  CD1       25.9150  119.3760  -26.8650 C.ar  388  TYR388     -0.0009
     98  CD2       27.0200  118.1440  -25.1320 C.ar  388  TYR388     -0.0009
     99  CE1       26.8390  120.4090  -26.7270 C.ar  388  TYR388      0.0417
    100  CE2       27.9480  119.1720  -24.9880 C.ar  388  TYR388      0.0417
    101  CZ        27.8490  120.2970  -25.7890 C.ar  388  TYR388      0.1957
    102  OH        28.7590  121.3130  -25.6510 O.3   388  TYR388     -0.2866
    103  N         25.3300  114.8750  -19.6530 N.3   391  LEU391     -0.1245
    104  CA        25.9120  115.9890  -18.9160 C.3   391  LEU391      0.1561
    105  C         26.6550  115.4900  -17.6850 C.2   391  LEU391      0.2260
    106  O         26.1860  114.5840  -16.9880 O.2   391  LEU391     -0.2867
    107  CB        24.8410  116.9970  -18.5140 C.3   391  LEU391      0.0270
    108  CG        23.9920  117.6400  -19.6070 C.3   391  LEU391      0.0019
    109  CD1       22.7540  118.2250  -18.9730 C.3   391  LEU391      0.0001
    110  CD2       24.7490  118.7110  -20.3770 C.3   391  LEU391      0.0001
    111  N         29.0070  120.6560  -14.8470 N.3   395  GLU395     -0.1231
    112  CA        28.4000  121.3760  -15.9620 C.3   395  GLU395      0.1699
    113  C         27.2260  122.2210  -15.4840 C.2   395  GLU395      0.2592
    114  O         26.4910  121.8180  -14.5890 O.2   395  GLU395     -0.2718
    115  CB        27.9190  120.3900  -17.0230 C.3   395  GLU395      0.0402
    116  CG        29.0020  119.8560  -17.9470 C.3   395  GLU395      0.1161
    117  CD        28.4280  119.2930  -19.2370 C.2   395  GLU395      0.3649
    118  OE1       28.6730  118.0960  -19.5270 O.co2 395  GLU395     -0.2457
    119  OE2       27.7290  120.0510  -19.9560 O.co2 395  GLU395     -0.2457
    120  N         27.0360  123.3760  -16.1100 N.am  396  VAL396     -0.1966
    121  CA        26.1330  124.3990  -15.5910 C.3   396  VAL396      0.1727
    122  C         24.7570  124.4270  -16.2720 C.2   396  VAL396      0.2616
    123  O         24.6110  124.9050  -17.3990 O.2   396  VAL396     -0.2715
    124  CB        26.8190  125.7780  -15.6420 C.3   396  VAL396      0.0290
    125  CG1       25.8410  126.8990  -15.3230 C.3   396  VAL396      0.0023
    126  CG2       28.0050  125.8020  -14.6840 C.3   396  VAL396      0.0023
    127  N         23.7480  123.9340  -15.5600 N.am  397  VAL397     -0.1963
    128  CA        22.4140  123.7610  -16.1320 C.3   397  VAL397      0.1727
    129  C         21.3320  124.6860  -15.5650 C.2   397  VAL397      0.2616
    130  O         21.5000  125.3030  -14.5110 O.2   397  VAL397     -0.2715
    131  CB        21.9330  122.3040  -16.0400 C.3   397  VAL397      0.0290
    132  CG1       21.4110  121.8450  -17.4000 C.3   397  VAL397      0.0023
    133  CG2       23.0510  121.4020  -15.5520 C.3   397  VAL397      0.0023
    134  N         20.2290  124.7710  -16.3040 N.am  398  ASP398     -0.1971
    135  CA        19.0540  125.5340  -15.9260 C.3   398  ASP398      0.1709
    136  C         18.2790  124.8000  -14.8530 C.2   398  ASP398      0.2293
    137  O         18.0920  123.5870  -14.9360 O.2   398  ASP398     -0.2864
    138  CB        18.1420  125.7090  -17.1360 C.3   398  ASP398      0.1436
    139  CG        18.8050  126.4790  -18.2610 C.2   398  ASP398      0.3671
    140  OD1       19.3020  127.6050  -18.0000 O.co2 398  ASP398     -0.2456
    141  OD2       18.8690  126.0360  -19.4370 O.co2 398  ASP398     -0.2456
@<TRIPOS>BOND
     1    90    88    1
     2    86    87    2
     3    86    85    1
     4    85    88    1
     5    85    84    1
     6    88    89    1
     7    91    92    1
     8    92    93    1
     9    92    95    1
    10    97    99   ar
    11    97    96   ar
    12    94    93    2
    13    99   101   ar
    14    81    82    1
    15    81    78    1
    16    82    83    1
    17     1     2    1
    18    95    96    1
    19    13    10    1
    20    13    14    1
    21    80    79    2
    22    96    98   ar
    23    79    78    1
    24    11    10    1
    25    11    12    2
    26   101   102    1
    27   101   100   ar
    28     9    10    1
    29     9     3   am
    30    78    77    1
    31    14    16   ar
    32    14    15   ar
    33    98   100   ar
    34    83    77    1
    35     2     3    1
    36     2     5    1
    37     3     4    2
    38    77    72   am
    39     5     6    1
    40    72    73    2
    41    72    71    1
    42    74    71    1
    43    74    75    1
    44    37    36    2
    45     6     7    1
    46    41    39    1
    47    71    70    1
    48    38    39    1
    49    38    35    1
    50    36    35    1
    51    75    76    1
    52     7     8    1
    53    39    40    1
    54    35    34    1
    55    70    76    1
    56    70    64   am
    57    65    64    2
    58   110   108    1
    59    64    63    1
    60    53    52    1
    61   119   117   ar
    62   103   104    1
    63   108   109    1
    64   108   107    1
    65   118   117   ar
    66   141   139   ar
    67   117   116    1
    68    52    50   ar
    69    52    51   ar
    70    50    48   ar
    71   104   107    1
    72   104   105    1
    73    63    66    1
    74    63    62    1
    75    66    67    1
    76    57    56    2
    77   139   140   ar
    78   139   138    1
    79    33    32    1
    80    51    49   ar
    81    32    31    1
    82   116   115    1
    83    62    56   am
    84    48    47   ar
    85    56    55    1
    86   105   106    2
    87   132   131    1
    88   123   122    2
    89    61    60    1
    90    67    69    1
    91    67    68    1
    92    58    55    1
    93    58    59    1
    94   138   135    1
    95    24    22    1
    96   115   112    1
    97    49    47   ar
    98    47    46    1
    99    42    43    1
   100    55    54    1
   101    60    59    1
   102    31    30    1
   103   134   135    1
   104   134   129   am
   105   122   121    1
   106   122   127   am
   107   128   131    1
   108   128   129    1
   109   128   127    1
   110   120   121    1
   111   120   113   am
   112   131   133    1
   113   112   113    1
   114   112   111    1
   115   135   136    1
   116    23    21    1
   117    43    46    1
   118    43    44    1
   119   124   121    1
   120   124   125    1
   121   124   126    1
   122    22    21    1
   123   129   130    2
   124   113   114    2
   125    30    29    1
   126    21    18    1
   127   137   136    2
   128    44    45    2
   129    29    26    1
   130    20    19    2
   131    18    19    1
   132    18    17    1
   133    26    25    1
   134    26    27    1
   135    27    28    2
