@<TRIPOS>MOLECULE
tmp/1t3iA01.pdb
 125 115 0 0 0
SMALL
GASTEIGER

@<TRIPOS>ATOM
      1  N         -1.0710   41.1920   14.0140 N.3    29  ALA29      -0.1231
      2  CA         0.2550   40.9030   13.4860 C.3    29  ALA29       0.1694
      3  C          1.2840   41.6630   14.3320 C.2    29  ALA29       0.2591
      4  O          2.4520   41.2830   14.3810 O.2    29  ALA29      -0.2718
      5  CB         0.3470   41.3240   12.0260 C.3    29  ALA29       0.0304
      6  N          0.8440   42.7350   14.9920 N.am   30  ALA30      -0.1980
      7  CA         1.7310   43.5240   15.8490 C.3    30  ALA30       0.1597
      8  C          1.8510   42.8030   17.1910 C.2    30  ALA30       0.2287
      9  O          2.9480   42.5920   17.7030 O.2    30  ALA30      -0.2864
     10  CB         1.1740   44.9310   16.0430 C.3    30  ALA30       0.0319
     11  N         12.4350   37.7720   23.1460 N.3    90  ASN90      -0.1225
     12  CA        11.5920   37.8530   21.9650 C.3    90  ASN90       0.1785
     13  C         12.2900   37.1730   20.7930 C.2    90  ASN90       0.2597
     14  O         13.4190   36.6980   20.9280 O.2    90  ASN90      -0.2718
     15  CB        11.2760   39.3160   21.6170 C.3    90  ASN90       0.1169
     16  CG        12.5060   40.2080   21.6260 C.2    90  ASN90       0.2627
     17  OD1       13.6090   39.7810   21.2830 O.2    90  ASN90      -0.2716
     18  ND2       12.3130   41.4700   22.0040 N.am   90  ASN90      -0.0877
     19  N         11.6170   37.1240   19.6500 N.am   91  ALA91      -0.1966
     20  CA        12.1850   36.4870   18.4710 C.3    91  ALA91       0.1728
     21  C         13.4270   37.2360   18.0190 C.2    91  ALA91       0.2616
     22  O         14.3750   36.6360   17.5160 O.2    91  ALA91      -0.2715
     23  CB        11.1560   36.4510   17.3550 C.3    91  ALA91       0.0334
     24  N         13.4200   38.5520   18.2040 N.am   92  THR92      -0.1951
     25  CA        14.5650   39.3620   17.8060 C.3    92  THR92       0.1897
     26  C         15.8150   38.8940   18.5420 C.2    92  THR92       0.2313
     27  O         16.8700   38.7430   17.9320 O.2    92  THR92      -0.2863
     28  CB        14.3240   40.8570   18.0890 C.3    92  THR92       0.1794
     29  OG1       13.2380   41.3230   17.2750 O.3    92  THR92      -0.2208
     30  CG2       15.5720   41.6730   17.7590 C.3    92  THR92       0.0378
     31  N         17.0830   35.6680   17.0220 N.3    95  ILE95      -0.1245
     32  CA        17.8130   35.8210   15.7660 C.3    95  ILE95       0.1561
     33  C         19.2240   36.3430   16.0570 C.2    95  ILE95       0.2260
     34  O         20.1970   35.8880   15.4580 O.2    95  ILE95      -0.2867
     35  CB        17.0830   36.7870   14.7950 C.3    95  ILE95       0.0252
     36  CG1       15.7530   36.1620   14.3520 C.3    95  ILE95       0.0019
     37  CG2       17.9620   37.0730   13.5720 C.3    95  ILE95       0.0019
     38  CD1       14.9070   37.0440   13.4550 C.3    95  ILE95       0.0001
     39  N         11.5950   41.3160    7.8870 N.3   120  HIS120     -0.1241
     40  CA        11.3290   42.2100    9.0060 C.3   120  HIS120      0.1621
     41  C         12.7330   42.6740    9.4140 C.2   120  HIS120      0.2264
     42  O         13.7040   41.9380    9.2320 O.2   120  HIS120     -0.2867
     43  CB        10.6840   41.4070   10.1400 C.3   120  HIS120      0.0745
     44  CG        10.4510   42.1870   11.3970 C.ar  120  HIS120      0.0817
     45  ND1        9.1910   42.5490   11.8260 N.ar  120  HIS120     -0.2268
     46  CD2       11.3140   42.6370   12.3390 C.ar  120  HIS120      0.1154
     47  CE1        9.2890   43.1860   12.9810 C.ar  120  HIS120      0.1986
     48  NE2       10.5660   43.2530   13.3140 N.ar  120  HIS120     -0.2212
     49  N         14.1990   42.7430   12.1360 N.3   122  SER122     -0.1217
     50  CA        14.8740   41.8350   13.0540 C.3   122  SER122      0.1889
     51  C         15.5680   40.6620   12.3750 C.2   122  SER122      0.2288
     52  O         16.4540   40.0410   12.9680 O.2   122  SER122     -0.2866
     53  CB        13.9000   41.3420   14.1240 C.3   122  SER122      0.2089
     54  OG        13.4960   42.4270   14.9500 O.3   122  SER122     -0.2183
     55  N         11.8090   34.7180    6.1300 N.3   168  VAL168     -0.1245
     56  CA        10.6050   34.7840    6.9370 C.3   168  VAL168      0.1561
     57  C          9.7070   33.6390    6.4660 C.2   168  VAL168      0.2260
     58  O          9.6790   33.3160    5.2750 O.2   168  VAL168     -0.2867
     59  CB         9.8800   36.1360    6.7450 C.3   168  VAL168      0.0252
     60  CG1        9.3760   36.2720    5.3130 C.3   168  VAL168      0.0019
     61  CG2        8.7370   36.2540    7.7340 C.3   168  VAL168      0.0019
     62  N          6.2140   33.4190    7.0810 N.3   170  ILE170     -0.1245
     63  CA         5.0470   34.1290    6.5820 C.3   170  ILE170      0.1561
     64  C          5.3090   35.6190    6.7910 C.2   170  ILE170      0.2260
     65  O          5.6030   36.0520    7.9030 O.2   170  ILE170     -0.2867
     66  CB         3.7680   33.7130    7.3380 C.3   170  ILE170      0.0252
     67  CG1        3.5050   32.2180    7.1190 C.3   170  ILE170      0.0019
     68  CG2        2.5810   34.5400    6.8450 C.3   170  ILE170      0.0019
     69  CD1        2.2470   31.6890    7.8050 C.3   170  ILE170      0.0001
     70  N          4.8790   39.5100    7.4620 N.3   172  ASN172     -0.1240
     71  CA         3.9720   40.3230    8.2740 C.3   172  ASN172      0.1653
     72  C          3.4060   41.4910    7.4730 C.2   172  ASN172      0.2266
     73  O          2.5980   42.2740    7.9780 O.2   172  ASN172     -0.2867
     74  CB         4.6890   40.8520    9.5230 C.3   172  ASN172      0.1155
     75  CG         5.8850   41.7280    9.1870 C.2   172  ASN172      0.2627
     76  OD1        6.7480   41.3430    8.3980 O.2   172  ASN172     -0.2716
     77  ND2        5.9490   42.9080    9.8010 N.am  172  ASN172     -0.0877
     78  N         12.1900   32.5860   10.1790 N.3   197  ASP197     -0.1239
     79  CA        11.5740   33.5590   11.0830 C.3   197  ASP197      0.1674
     80  C         10.0840   33.2380   11.0470 C.2   197  ASP197      0.2266
     81  O          9.3750   33.6540   10.1330 O.2   197  ASP197     -0.2867
     82  CB        11.8330   34.9800   10.5630 C.3   197  ASP197      0.1410
     83  CG        11.0570   36.0420   11.3250 C.2   197  ASP197      0.3668
     84  OD1       10.1760   35.6930   12.1440 O.co2 197  ASP197     -0.2456
     85  OD2       11.3280   37.2370   11.0880 O.co2 197  ASP197     -0.2456
     86  N          7.6520   34.1350   13.2520 N.3   199  CYS199     -0.1221
     87  CA         6.8320   34.9590   14.1370 C.3   199  CYS199      0.1808
     88  C          5.3800   35.0360   13.7020 C.2   199  CYS199      0.2601
     89  O          4.4820   35.1170   14.5400 O.2   199  CYS199     -0.2717
     90  CB         7.4020   36.3660   14.2320 C.3   199  CYS199      0.0970
     91  SG         8.9210   36.4060   15.1580 S.3   199  CYS199     -0.0800
     92  N          5.1430   35.0120   12.3950 N.am  200  GLN200     -0.1979
     93  CA         3.7790   35.0890   11.8980 C.3   200  GLN200      0.1601
     94  C          3.1460   33.7300   11.6350 C.2   200  GLN200      0.2287
     95  O          1.9430   33.6450   11.4060 O.2   200  GLN200     -0.2864
     96  CB         3.7170   35.9460   10.6330 C.3   200  GLN200      0.0394
     97  CG         4.0380   37.4180   10.8660 C.3   200  GLN200      0.0908
     98  CD         3.1390   38.0620   11.9160 C.2   200  GLN200      0.2608
     99  OE1        1.9430   37.7850   11.9800 O.2   200  GLN200     -0.2717
    100  NE2        3.7160   38.9410   12.7310 N.am  200  GLN200     -0.0878
    101  N          7.8640   34.6590   18.5800 N.3   220  SER220     -0.1217
    102  CA         7.6240   35.5400   19.7150 C.3   220  SER220      0.1889
    103  C          6.3350   35.1540   20.4290 C.2   220  SER220      0.2288
    104  O          5.2870   35.0160   19.8030 O.2   220  SER220     -0.2866
    105  CB         7.5410   36.9980   19.2640 C.3   220  SER220      0.2089
    106  OG         8.8320   37.5860   19.2320 O.3   220  SER220     -0.2183
    107  N          4.4540   36.9140   22.5160 N.3   222  HIS222     -0.1226
    108  CA         3.4070   37.9240   22.5820 C.3   222  HIS222      0.1752
    109  C          2.4540   37.9120   21.3920 C.2   222  HIS222      0.2595
    110  O          1.3470   38.4440   21.4770 O.2   222  HIS222     -0.2718
    111  CB         4.0170   39.3200   22.7990 C.3   222  HIS222      0.0759
    112  CG         4.7120   39.8880   21.6010 C.ar  222  HIS222      0.0818
    113  ND1        4.0640   40.6620   20.6620 N.ar  222  HIS222     -0.2268
    114  CD2        6.0050   39.8160   21.2030 C.ar  222  HIS222      0.1154
    115  CE1        4.9280   41.0440   19.7380 C.ar  222  HIS222      0.1986
    116  NE2        6.1120   40.5430   20.0430 N.ar  222  HIS222     -0.2212
    117  N          2.8650   37.2830   20.2940 N.am  223  LYS223     -0.1980
    118  CA         2.0110   37.2020   19.1170 C.3   223  LYS223      0.1596
    119  C          1.1600   35.9370   19.1290 C.2   223  LYS223      0.2287
    120  O          0.2600   35.7770   18.2980 O.2   223  LYS223     -0.2864
    121  CB         2.8540   37.2430   17.8510 C.3   223  LYS223      0.0298
    122  CG         3.4370   38.6120   17.5980 C.3   223  LYS223      0.0038
    123  CD         4.3960   38.5810   16.4480 C.3   223  LYS223      0.0206
    124  CE         4.9350   39.9640   16.1770 C.3   223  LYS223      0.1093
    125  NZ         5.9860   39.8350   15.3750 N.3   223  LYS223     -0.1314
@<TRIPOS>BOND
     1    58    57    2
     2    60    59    1
     3    55    56    1
     4    57    56    1
     5    63    64    1
     6    63    62    1
     7    63    66    1
     8    59    56    1
     9    59    61    1
    10    64    65    2
    11    68    66    1
    12    67    66    1
    13    67    69    1
    14    70    71    1
    15    72    73    2
    16    72    71    1
    17    39    40    1
    18    71    74    1
    19    76    75    2
    20    40    41    1
    21    40    43    1
    22    75    74    1
    23    75    77   am
    24    42    41    2
    25    81    80    2
    26    43    44    1
    27    78    79    1
    28    82    79    1
    29    82    83    1
    30    96    97    1
    31    96    93    1
    32    97    98    1
    33    80    79    1
    34    85    83   ar
    35    83    84   ar
    36    44    45   ar
    37    44    46   ar
    38    95    94    2
    39    94    93    1
    40    45    47   ar
    41    93    92    1
    42    98    99    2
    43    98   100   am
    44     5     2    1
    45    49    50    1
    46    46    48   ar
    47    51    52    2
    48    51    50    1
    49    92    88   am
    50    47    48   ar
    51    50    53    1
    52    86    87    1
    53    38    36    1
    54     2     1    1
    55     2     3    1
    56    37    35    1
    57    88    87    1
    58    88    89    2
    59    53    54    1
    60    87    90    1
    61    90    91    1
    62     3     4    2
    63     3     6   am
    64    36    35    1
    65    35    32    1
    66     6     7    1
    67   125   124    1
    68    34    33    2
    69    32    33    1
    70    32    31    1
    71     7    10    1
    72     7     8    1
    73   124   123    1
    74   123   122    1
    75     8     9    2
    76    29    28    1
    77    23    20    1
    78    22    21    2
    79   122   121    1
    80    30    28    1
    81    25    28    1
    82    25    24    1
    83    25    26    1
    84   121   118    1
    85    27    26    2
    86    21    24   am
    87    21    20    1
    88   120   119    2
    89    20    19    1
    90   101   102    1
    91   118   119    1
    92   118   117    1
    93   106   105    1
    94   105   102    1
    95    19    13   am
    96   102   103    1
    97   115   116   ar
    98   115   113   ar
    99   104   103    2
   100   116   114   ar
   101   117   109   am
   102   113   112   ar
   103    13    14    2
   104    13    12    1
   105   114   112   ar
   106    17    16    2
   107   109   110    2
   108   109   108    1
   109   112   111    1
   110    15    16    1
   111    15    12    1
   112    16    18   am
   113    12    11    1
   114   107   108    1
   115   108   111    1
