@<TRIPOS>MOLECULE
tmp/1t3iA00.pdb
 129 122 0 0 0
SMALL
GASTEIGER

@<TRIPOS>ATOM
      1  N         13.9330   38.2400   -4.7970 N.3   142  GLN142     -0.1231
      2  CA        12.9280   39.2000   -5.2510 C.3   142  GLN142      0.1698
      3  C         11.5070   38.6390   -5.1290 C.2   142  GLN142      0.2592
      4  O         11.3170   37.4590   -4.8360 O.2   142  GLN142     -0.2718
      5  CB        13.2050   39.5580   -6.7170 C.3   142  GLN142      0.0381
      6  CG        12.8710   38.4230   -7.6830 C.3   142  GLN142      0.0905
      7  CD        13.4220   38.6340   -9.0860 C.2   142  GLN142      0.2608
      8  OE1       12.8540   38.1450  -10.0670 O.2   142  GLN142     -0.2717
      9  NE2       14.5350   39.3460   -9.1880 N.am  142  GLN142     -0.0878
     10  N         10.5100   39.4910   -5.3480 N.am  143  LEU143     -0.1966
     11  CA         9.1180   39.0570   -5.2970 C.3   143  LEU143      0.1728
     12  C          8.7110   38.5980   -6.6930 C.2   143  LEU143      0.2616
     13  O          9.1910   39.1360   -7.6940 O.2   143  LEU143     -0.2715
     14  CB         8.1970   40.2020   -4.8800 C.3   143  LEU143      0.0311
     15  CG         8.4270   40.8440   -3.5120 C.3   143  LEU143      0.0022
     16  CD1        7.3620   41.9100   -3.2720 C.3   143  LEU143      0.0001
     17  CD2        8.3760   39.7740   -2.4330 C.3   143  LEU143      0.0001
     18  N          7.8250   37.6110   -6.7630 N.am  144  ASP144     -0.1957
     19  CA         7.3730   37.1230   -8.0560 C.3   144  ASP144      0.1840
     20  C          6.1080   37.8660   -8.4690 C.2   144  ASP144      0.2621
     21  O          5.7070   38.8320   -7.8100 O.2   144  ASP144     -0.2715
     22  CB         7.1400   35.6040   -8.0080 C.3   144  ASP144      0.1450
     23  CG         5.9930   35.2050   -7.0980 C.2   144  ASP144      0.3671
     24  OD1        5.8010   33.9880   -6.9180 O.co2 144  ASP144     -0.2456
     25  OD2        5.2800   36.0860   -6.5730 O.co2 144  ASP144     -0.2456
     26  N          5.4820   37.4280   -9.5580 N.am  145  GLU145     -0.1977
     27  CA         4.2790   38.0880  -10.0550 C.3   145  GLU145      0.1602
     28  C          3.1400   38.1380   -9.0360 C.2   145  GLU145      0.2287
     29  O          2.2910   39.0220   -9.1030 O.2   145  GLU145     -0.2864
     30  CB         3.8010   37.4150  -11.3540 C.3   145  GLU145      0.0415
     31  CG         4.7630   37.2930  -12.5060 C.3   145  GLU145      0.1163
     32  CD         5.7110   36.1100  -12.3500 C.2   145  GLU145      0.3649
     33  OE1        5.2390   35.0030  -12.0150 O.co2 145  GLU145     -0.2457
     34  OE2        6.9330   36.3340  -12.5280 O.co2 145  GLU145     -0.2457
     35  N          3.5440   38.7290   -5.9140 N.3   147  GLU147     -0.1245
     36  CA         4.1040   39.4540   -4.7750 C.3   147  GLU147      0.1567
     37  C          4.4040   38.5040   -3.6190 C.2   147  GLU147      0.2260
     38  O          4.0620   38.7540   -2.4550 O.2   147  GLU147     -0.2867
     39  CB         3.1390   40.5860   -4.3850 C.3   147  GLU147      0.0388
     40  CG         2.9320   41.5370   -5.5780 C.3   147  GLU147      0.1160
     41  CD         2.0810   42.7600   -5.2850 C.2   147  GLU147      0.3649
     42  OE1        1.9720   43.6150   -6.1920 O.co2 147  GLU147     -0.2457
     43  OE2        1.5250   42.8740   -4.1700 O.co2 147  GLU147     -0.2457
     44  N         10.0220   34.5270   -4.7880 N.3   150  ASP150     -0.1239
     45  CA        10.3390   34.0800   -6.1430 C.3   150  ASP150      0.1674
     46  C         11.2880   32.8930   -6.0310 C.2   150  ASP150      0.2266
     47  O         12.5020   33.0590   -5.8970 O.2   150  ASP150     -0.2867
     48  CB        11.0090   35.1950   -6.9500 C.3   150  ASP150      0.1410
     49  CG        11.0410   34.8970   -8.4490 C.2   150  ASP150      0.3668
     50  OD1       11.3450   33.7450   -8.8280 O.co2 150  ASP150     -0.2456
     51  OD2       10.7710   35.8180   -9.2460 O.co2 150  ASP150     -0.2456
     52  N          3.8310   41.6140    6.2210 N.3   173  THR173     -0.1203
     53  CA         3.3330   42.6860    5.3660 C.3   173  THR173      0.1994
     54  C          2.6090   42.1100    4.1520 C.2   173  THR173      0.2617
     55  O          1.4230   42.3720    3.9480 O.2   173  THR173     -0.2717
     56  CB         4.4830   43.6110    4.9000 C.3   173  THR173      0.1784
     57  OG1        4.9790   44.3530    6.0250 O.3   173  THR173     -0.2211
     58  CG2        4.0020   44.5880    3.8350 C.3   173  THR173      0.0376
     59  N          3.3230   41.3170    3.3580 N.am  174  LEU174     -0.1979
     60  CA         2.7480   40.7150    2.1560 C.3   174  LEU174      0.1596
     61  C          1.8040   39.5680    2.4790 C.2   174  LEU174      0.2287
     62  O          0.8770   39.2840    1.7180 O.2   174  LEU174     -0.2864
     63  CB         3.8610   40.2090    1.2370 C.3   174  LEU174      0.0297
     64  CG         4.8340   41.2760    0.7310 C.3   174  LEU174      0.0022
     65  CD1        5.9700   40.6070   -0.0220 C.3   174  LEU174      0.0001
     66  CD2        4.0990   42.2630   -0.1520 C.3   174  LEU174      0.0001
     67  N         -5.4230   49.2780   -3.2340 N.3   320  ARG320     -0.1245
     68  CA        -4.3580   48.4890   -3.8290 C.3   320  ARG320      0.1563
     69  C         -3.9860   47.4890   -2.7270 C.2   320  ARG320      0.2260
     70  O         -3.5300   47.8900   -1.6540 O.2   320  ARG320     -0.2867
     71  CB        -3.1670   49.3950   -4.1440 C.3   320  ARG320      0.0307
     72  CG        -2.2810   48.9520   -5.2990 C.3   320  ARG320      0.0489
     73  CD        -1.6100   47.6330   -5.0400 C.3   320  ARG320      0.2205
     74  NE        -0.4060   47.4720   -5.8560 N.pl3 320  ARG320     -0.0865
     75  CZ         0.2980   46.3470   -5.9190 C.cat 320  ARG320      0.5346
     76  NH1       -0.0950   45.2850   -5.2180 N.pl3 320  ARG320      0.1354
     77  NH2        1.4020   46.2880   -6.6620 N.pl3 320  ARG320      0.1354
     78  N         -1.7000   44.3830   -1.2890 N.3   322  TYR322     -0.1241
     79  CA        -0.3590   43.8450   -1.4750 C.3   322  TYR322      0.1605
     80  C         -0.2630   42.3790   -1.0820 C.2   322  TYR322      0.2264
     81  O         -0.9290   41.9290   -0.1510 O.2   322  TYR322     -0.2867
     82  CB         0.6450   44.6570   -0.6550 C.3   322  TYR322      0.0534
     83  CG         0.6340   46.1350   -0.9780 C.ar  322  TYR322     -0.0201
     84  CD1        0.9920   46.5950   -2.2470 C.ar  322  TYR322     -0.0009
     85  CD2        0.2670   47.0750   -0.0130 C.ar  322  TYR322     -0.0009
     86  CE1        0.9860   47.9590   -2.5500 C.ar  322  TYR322      0.0417
     87  CE2        0.2550   48.4430   -0.3050 C.ar  322  TYR322      0.0417
     88  CZ         0.6160   48.8760   -1.5750 C.ar  322  TYR322      0.1957
     89  OH         0.5930   50.2190   -1.8700 O.3   322  TYR322     -0.2866
     90  N         11.4100   46.8880    2.0010 N.3   368  LEU368     -0.1231
     91  CA        10.3550   46.4010    1.1130 C.3   368  LEU368      0.1693
     92  C          9.4980   47.5680    0.6470 C.2   368  LEU368      0.2592
     93  O          9.2540   47.7350   -0.5490 O.2   368  LEU368     -0.2718
     94  CB         9.4720   45.3860    1.8400 C.3   368  LEU368      0.0284
     95  CG         8.2280   44.8680    1.1160 C.3   368  LEU368      0.0019
     96  CD1        8.6330   44.0720   -0.1260 C.3   368  LEU368      0.0001
     97  CD2        7.4170   43.9940    2.0730 C.3   368  LEU368      0.0001
     98  N          9.0340   48.3750    1.5950 N.am  369  HIS369     -0.1976
     99  CA         8.2090   49.5190    1.2410 C.3   369  HIS369      0.1656
    100  C          8.9540   50.4840    0.3300 C.2   369  HIS369      0.2291
    101  O          8.4140   50.9230   -0.6860 O.2   369  HIS369     -0.2864
    102  CB         7.7310   50.2540    2.4970 C.3   369  HIS369      0.0771
    103  CG         6.5930   49.5730    3.1940 C.ar  369  HIS369      0.0820
    104  ND1        6.7600   48.4440    3.9670 N.ar  369  HIS369     -0.2267
    105  CD2        5.2660   49.8450    3.2070 C.ar  369  HIS369      0.1154
    106  CE1        5.5860   48.0490    4.4250 C.ar  369  HIS369      0.1986
    107  NE2        4.6620   48.8820    3.9780 N.ar  369  HIS369     -0.2212
    108  N          9.3040   49.4650   -3.3740 N.3   372  PHE372     -0.1241
    109  CA         8.1600   49.6740   -4.2550 C.3   372  PHE372      0.1605
    110  C          7.5080   51.0400   -4.0940 C.2   372  PHE372      0.2264
    111  O          6.3290   51.2250   -4.4010 O.2   372  PHE372     -0.2867
    112  CB         7.1340   48.5530   -4.0630 C.3   372  PHE372      0.0534
    113  CG         7.6200   47.2170   -4.5520 C.ar  372  PHE372     -0.0203
    114  CD1        8.2870   46.3450   -3.6960 C.ar  372  PHE372     -0.0042
    115  CD2        7.4740   46.8610   -5.8930 C.ar  372  PHE372     -0.0042
    116  CE1        8.8050   45.1400   -4.1680 C.ar  372  PHE372     -0.0003
    117  CE2        7.9880   45.6580   -6.3710 C.ar  372  PHE372     -0.0003
    118  CZ         8.6550   44.7980   -5.5080 C.ar  372  PHE372     -0.0000
    119  N          6.3860   52.7410   -1.6130 N.3   374  ALA374     -0.1245
    120  CA         5.1670   52.7870   -0.8190 C.3   374  ALA374      0.1562
    121  C          5.4510   53.5810    0.4450 C.2   374  ALA374      0.2260
    122  O          6.3640   53.2520    1.2010 O.2   374  ALA374     -0.2867
    123  CB         4.7140   51.3790   -0.4650 C.3   374  ALA374      0.0290
    124  N          2.0300   51.5580    4.6740 N.3   377  SER377     -0.1217
    125  CA         0.8030   50.9440    4.1860 C.3   377  SER377      0.1889
    126  C         -0.1220   50.7030    5.3650 C.2   377  SER377      0.2288
    127  O          0.3160   50.7110    6.5140 O.2   377  SER377     -0.2866
    128  CB         1.1010   49.6200    3.4680 C.3   377  SER377      0.2089
    129  OG         1.7710   48.6970    4.3100 O.3   377  SER377     -0.2183
@<TRIPOS>BOND
     1    34    32   ar
     2    31    32    1
     3    31    30    1
     4    32    33   ar
     5    30    27    1
     6     8     7    2
     7    27    26    1
     8    27    28    1
     9    26    20   am
    10    51    49   ar
    11     9     7   am
    12    29    28    2
    13     7     6    1
    14    50    49   ar
    15    20    19    1
    16    20    21    2
    17    49    48    1
    18    19    22    1
    19    19    18    1
    20    22    23    1
    21    13    12    2
    22     6     5    1
    23    23    24   ar
    24    23    25   ar
    25    48    45    1
    26    18    12   am
    27     5     2    1
    28    12    11    1
    29    77    75    1
    30   117   115   ar
    31   117   118   ar
    32    42    41   ar
    33    45    46    1
    34    45    44    1
    35    46    47    2
    36    75    74    2
    37    75    76    1
    38    35    36    1
    39   115   113   ar
    40    74    73    1
    41    40    41    1
    42    40    39    1
    43   118   116   ar
    44    10    11    1
    45    10     3   am
    46    72    73    1
    47    72    71    1
    48    11    14    1
    49    41    43   ar
    50     2     3    1
    51     2     1    1
    52     3     4    2
    53    14    15    1
    54    36    39    1
    55    36    37    1
    56   113   112    1
    57   113   114   ar
    58   111   110    2
    59   109   110    1
    60   109   112    1
    61   109   108    1
    62   116   114   ar
    63    71    68    1
    64    68    67    1
    65    68    69    1
    66    37    38    2
    67    15    16    1
    68    15    17    1
    69    69    70    2
    70    86    84   ar
    71    86    88   ar
    72    84    83   ar
    73    89    88    1
    74   119   120    1
    75    88    87   ar
    76    79    78    1
    77    79    80    1
    78    79    82    1
    79    80    81    2
    80    83    82    1
    81    83    85   ar
    82   120   123    1
    83   120   121    1
    84   101   100    2
    85    93    92    2
    86    87    85   ar
    87    66    64    1
    88    96    95    1
    89    65    64    1
    90   100    99    1
    91   121   122    2
    92    92    91    1
    93    92    98   am
    94    64    63    1
    95    91    94    1
    96    91    90    1
    97    95    94    1
    98    95    97    1
    99    63    60    1
   100    99    98    1
   101    99   102    1
   102    62    61    2
   103    60    61    1
   104    60    59    1
   105   102   103    1
   106   103   105   ar
   107   103   104   ar
   108   105   107   ar
   109    59    54   am
   110   128   125    1
   111   128   129    1
   112    58    56    1
   113    55    54    2
   114   104   106   ar
   115   107   106   ar
   116    54    53    1
   117   125   124    1
   118   125   126    1
   119    56    53    1
   120    56    57    1
   121   126   127    2
   122    53    52    1
