@<TRIPOS>MOLECULE
tmp/1t40A01.pdb
 215 219 0 0 0
SMALL
GASTEIGER

@<TRIPOS>ATOM
      1  N         15.2270   -8.7750   25.7940 N.3    21  TRP21      -0.1241
      2  CA        15.6520   -9.4620   24.5790 C.3    21  TRP21       0.1605
      3  C         16.7430  -10.4650   24.9310 C.2    21  TRP21       0.2264
      4  O         17.7350  -10.1270   25.5810 O.2    21  TRP21      -0.2867
      5  CB        16.1880   -8.4640   23.5520 C.3    21  TRP21       0.0550
      6  CG        16.8430   -9.1220   22.3590 C.ar   21  TRP21       0.0003
      7  CD1       16.4170  -10.2430   21.6970 C.ar   21  TRP21       0.0946
      8  CD2       18.0400   -8.7000   21.6970 C.ar   21  TRP21       0.0152
      9  NE1       17.2780  -10.5410   20.6670 N.ar   21  TRP21      -0.2442
     10  CE2       18.2830   -9.6100   20.6460 C.ar   21  TRP21       0.0810
     11  CE3       18.9360   -7.6390   21.8930 C.ar   21  TRP21       0.0012
     12  CZ2       19.3810   -9.4880   19.7900 C.ar   21  TRP21       0.0191
     13  CZ3       20.0280   -7.5170   21.0410 C.ar   21  TRP21       0.0001
     14  CH2       20.2400   -8.4380   20.0040 C.ar   21  TRP21       0.0015
     15  N          8.5970  -10.0550   19.0590 N.3    48  VAL48      -0.1231
     16  CA         9.6830  -10.7630   18.3900 C.3    48  VAL48       0.1692
     17  C         10.6730  -11.4220   19.3610 C.2    48  VAL48       0.2592
     18  O         11.4760  -12.2750   18.9700 O.2    48  VAL48      -0.2718
     19  CB        10.4510   -9.8050   17.4270 C.3    48  VAL48       0.0266
     20  CG1       11.4660   -8.9680   18.2080 C.3    48  VAL48       0.0020
     21  CG2       11.1330  -10.6050   16.3160 C.3    48  VAL48       0.0020
     22  N         10.6480  -11.0490   20.6430 N.am   49  TYR49      -0.1962
     23  CA        11.5570  -11.6390   21.6300 C.3    49  TYR49       0.1771
     24  C         11.0800  -13.0370   22.0270 C.2    49  TYR49       0.2619
     25  O         11.7870  -13.7970   22.6900 O.2    49  TYR49      -0.2715
     26  CB        11.6630  -10.7530   22.8810 C.3    49  TYR49       0.0574
     27  CG        12.2560   -9.3760   22.6290 C.ar   49  TYR49      -0.0198
     28  CD1       12.8890   -9.0720   21.4200 C.ar   49  TYR49      -0.0009
     29  CD2       12.1620   -8.3700   23.5940 C.ar   49  TYR49      -0.0009
     30  CE1       13.4100   -7.7970   21.1740 C.ar   49  TYR49       0.0417
     31  CE2       12.6780   -7.0920   23.3610 C.ar   49  TYR49       0.0417
     32  CZ        13.2970   -6.8100   22.1480 C.ar   49  TYR49       0.1957
     33  OH        13.7740   -5.5370   21.9000 O.3    49  TYR49      -0.2866
     34  N          9.8580  -13.3910   21.6370 N.am   50  GLN50      -0.1977
     35  CA         9.2730  -14.7050   21.9050 C.3    50  GLN50       0.1601
     36  C          9.2070  -15.1140   23.3760 C.2    50  GLN50       0.2287
     37  O          9.2370  -16.2950   23.7110 O.2    50  GLN50      -0.2864
     38  CB        10.0270  -15.7850   21.1100 C.3    50  GLN50       0.0394
     39  CG         9.9600  -15.6060   19.5950 C.3    50  GLN50       0.0908
     40  CD        10.6340  -16.7430   18.8330 C.2    50  GLN50       0.2608
     41  OE1       10.2480  -17.9060   18.9540 O.2    50  GLN50      -0.2717
     42  NE2       11.6420  -16.4070   18.0410 N.am   50  GLN50      -0.0878
     43  N          6.1150   -5.6250   15.4910 N.3    80  TRP80      -0.1227
     44  CA         7.1340   -6.1790   14.6080 C.3    80  TRP80       0.1737
     45  C          6.9290   -5.7740   13.1490 C.2    80  TRP80       0.2595
     46  O          5.8350   -5.4090   12.7220 O.2    80  TRP80      -0.2718
     47  CB         7.2000   -7.7070   14.7380 C.3    80  TRP80       0.0564
     48  CG         8.3860   -8.2710   13.9970 C.ar   80  TRP80       0.0003
     49  CD1        8.3610   -9.1820   12.9790 C.ar   80  TRP80       0.0946
     50  CD2        9.7560   -7.8640   14.1380 C.ar   80  TRP80       0.0152
     51  NE1        9.6270   -9.3610   12.4720 N.ar   80  TRP80      -0.2442
     52  CE2       10.5020   -8.5660   13.1620 C.ar   80  TRP80       0.0810
     53  CE3       10.4270   -6.9710   14.9880 C.ar   80  TRP80       0.0012
     54  CZ2       11.8850   -8.4030   13.0140 C.ar   80  TRP80       0.0191
     55  CZ3       11.8080   -6.8080   14.8400 C.ar   80  TRP80       0.0001
     56  CH2       12.5180   -7.5230   13.8580 C.ar   80  TRP80       0.0015
     57  N          7.9930   -5.8390   12.3530 N.am   81  CYS81      -0.1970
     58  CA         7.9850   -5.4410   10.9450 C.3    81  CYS81       0.1712
     59  C          6.9990   -6.1320   10.0070 C.2    81  CYS81       0.2296
     60  O          6.6100   -5.5780    8.9760 O.2    81  CYS81      -0.2864
     61  CB         9.3960   -5.5870   10.3740 C.3    81  CYS81       0.0983
     62  SG        10.6870   -4.8150   11.3830 S.3    81  CYS81      -0.0798
     63  N          8.6040   -1.0990   16.0650 N.3   111  HIS111     -0.1226
     64  CA         9.9280   -1.6590   16.3410 C.3   111  HIS111      0.1752
     65  C         11.0450   -1.1890   15.4200 C.2   111  HIS111      0.2596
     66  O         12.1480   -0.8600   15.8590 O.2   111  HIS111     -0.2718
     67  CB         9.8620   -3.1910   16.3400 C.3   111  HIS111      0.0759
     68  CG        10.8880   -3.8370   17.2210 C.ar  111  HIS111      0.0818
     69  ND1       10.6520   -5.0120   17.9000 N.ar  111  HIS111     -0.2268
     70  CD2       12.1520   -3.4660   17.5360 C.ar  111  HIS111      0.1154
     71  CE1       11.7280   -5.3380   18.5960 C.ar  111  HIS111      0.1986
     72  NE2       12.6520   -4.4150   18.3930 N.ar  111  HIS111     -0.2212
     73  N         10.7820   -1.1600   14.1190 N.am  112  TRP112     -0.1976
     74  CA        11.7510   -0.7160   13.1220 C.3   112  TRP112      0.1640
     75  C         10.9430    0.0050   12.0460 C.2   112  TRP112      0.2290
     76  O          9.7600   -0.2810   11.8570 O.2   112  TRP112     -0.2864
     77  CB        12.4910   -1.9190   12.5130 C.3   112  TRP112      0.0576
     78  CG        13.4650   -2.5870   13.4580 C.ar  112  TRP112      0.0006
     79  CD1       13.1870   -3.5790   14.3590 C.ar  112  TRP112      0.0946
     80  CD2       14.8670   -2.3070   13.5940 C.ar  112  TRP112      0.0152
     81  NE1       14.3270   -3.9330   15.0480 N.ar  112  TRP112     -0.2442
     82  CE2       15.3720   -3.1680   14.5980 C.ar  112  TRP112      0.0810
     83  CE3       15.7440   -1.4110   12.9650 C.ar  112  TRP112      0.0012
     84  CZ2       16.7170   -3.1570   14.9900 C.ar  112  TRP112      0.0191
     85  CZ3       17.0800   -1.4000   13.3560 C.ar  112  TRP112      0.0001
     86  CH2       17.5530   -2.2700   14.3590 C.ar  112  TRP112      0.0015
     87  N         11.1910   -0.3090    8.9370 N.3   114  THR114     -0.1218
     88  CA        11.0300   -1.2090    7.7950 C.3   114  THR114      0.1862
     89  C          9.8760   -2.2110    7.8860 C.2   114  THR114      0.2287
     90  O          9.7800   -3.0110    8.8210 O.2   114  THR114     -0.2866
     91  CB        12.3110   -2.0220    7.5710 C.3   114  THR114      0.1770
     92  OG1       12.6070   -2.7680    8.7610 O.3   114  THR114     -0.2211
     93  CG2       13.4770   -1.1070    7.2550 C.3   114  THR114      0.0375
     94  N          7.9910   -5.5630    6.6090 N.3   116  PHE116     -0.1241
     95  CA         8.3430   -6.8090    5.9170 C.3   116  PHE116      0.1605
     96  C          7.0790   -7.4990    5.4170 C.2   116  PHE116      0.2264
     97  O          5.9770   -7.2400    5.8900 O.2   116  PHE116     -0.2867
     98  CB         9.0510   -7.7880    6.8650 C.3   116  PHE116      0.0534
     99  CG        10.4010   -7.3340    7.3480 C.ar  116  PHE116     -0.0203
    100  CD1       11.0570   -6.2550    6.7610 C.ar  116  PHE116     -0.0042
    101  CD2       11.0200   -8.0050    8.4070 C.ar  116  PHE116     -0.0042
    102  CE1       12.3100   -5.8480    7.2210 C.ar  116  PHE116     -0.0003
    103  CE2       12.2700   -7.6090    8.8750 C.ar  116  PHE116     -0.0003
    104  CZ        12.9180   -6.5260    8.2800 C.ar  116  PHE116     -0.0000
    105  N          9.4400  -14.1440   10.8550 N.3   122  PHE122     -0.1227
    106  CA         9.8220  -12.8180   11.3500 C.3   122  PHE122      0.1736
    107  C         10.7110  -12.0940   10.3300 C.2   122  PHE122      0.2595
    108  O         10.6660  -10.8710   10.1710 O.2   122  PHE122     -0.2718
    109  CB        10.5830  -12.9460   12.6730 C.3   122  PHE122      0.0547
    110  CG         9.7190  -13.3190   13.8470 C.ar  122  PHE122     -0.0202
    111  CD1        8.3500  -13.0580   13.8420 C.ar  122  PHE122     -0.0042
    112  CD2       10.2860  -13.9090   14.9750 C.ar  122  PHE122     -0.0042
    113  CE1        7.5530  -13.3780   14.9450 C.ar  122  PHE122     -0.0003
    114  CE2        9.5000  -14.2340   16.0870 C.ar  122  PHE122     -0.0003
    115  CZ         8.1310  -13.9660   16.0710 C.ar  122  PHE122     -0.0000
    116  N         11.5550  -12.8360    9.6220 N.am  123  PHE123     -0.1976
    117  CA        12.4360  -12.2570    8.6160 C.3   123  PHE123      0.1639
    118  C         12.2520  -13.0140    7.3020 C.2   123  PHE123      0.2290
    119  O         13.0130  -13.9300    6.9920 O.2   123  PHE123     -0.2864
    120  CB        13.9030  -12.3520    9.0590 C.3   123  PHE123      0.0560
    121  CG        14.2550  -11.4580   10.2200 C.ar  123  PHE123     -0.0200
    122  CD1       14.0360  -11.8770   11.5290 C.ar  123  PHE123     -0.0042
    123  CD2       14.8240  -10.2050   10.0030 C.ar  123  PHE123     -0.0042
    124  CE1       14.3800  -11.0620   12.6070 C.ar  123  PHE123     -0.0003
    125  CE2       15.1730   -9.3850   11.0720 C.ar  123  PHE123     -0.0003
    126  CZ        14.9500   -9.8150   12.3750 C.ar  123  PHE123     -0.0000
    127  N         14.5390    3.0020   16.3350 N.3   161  ASN161     -0.1240
    128  CA        15.4640    2.8690   15.2070 C.3   161  ASN161      0.1653
    129  C         15.1040    3.7580   14.0160 C.2   161  ASN161      0.2266
    130  O         15.3650    3.4240   12.8560 O.2   161  ASN161     -0.2867
    131  CB        15.5380    1.4050   14.7580 C.3   161  ASN161      0.1155
    132  CG        15.9970    0.4820   15.8670 C.2   161  ASN161      0.2627
    133  OD1       17.1230    0.5900   16.3540 O.2   161  ASN161     -0.2716
    134  ND2       15.1250   -0.4340   16.2750 N.am  161  ASN161     -0.0877
    135  N         19.0700    1.8800   24.1760 N.3   210  TYR210     -0.1241
    136  CA        19.0960    0.4310   24.2980 C.3   210  TYR210      0.1605
    137  C         20.5190   -0.0990   24.1190 C.2   210  TYR210      0.2264
    138  O         21.4090    0.5980   23.6170 O.2   210  TYR210     -0.2867
    139  CB        18.0960   -0.2320   23.3330 C.3   210  TYR210      0.0534
    140  CG        18.4140   -0.2160   21.8450 C.ar  210  TYR210     -0.0201
    141  CD1       19.5730   -0.8180   21.3400 C.ar  210  TYR210     -0.0009
    142  CD2       17.4670    0.2470   20.9290 C.ar  210  TYR210     -0.0009
    143  CE1       19.7650   -0.9820   19.9580 C.ar  210  TYR210      0.0417
    144  CE2       17.6480    0.0910   19.5560 C.ar  210  TYR210      0.0417
    145  CZ        18.7880   -0.5350   19.0740 C.ar  210  TYR210      0.1957
    146  OH        18.8940   -0.8120   17.7210 O.3   210  TYR210     -0.2866
    147  N         25.1760  -12.4780   17.1650 N.3   220  TRP220     -0.1241
    148  CA        26.1900  -12.2770   16.1390 C.3   220  TRP220      0.1605
    149  C         27.4920  -11.7340   16.7190 C.2   220  TRP220      0.2264
    150  O         28.4470  -11.4520   15.9950 O.2   220  TRP220     -0.2867
    151  CB        25.6620  -11.3330   15.0570 C.3   220  TRP220      0.0550
    152  CG        25.1130  -10.0560   15.5870 C.ar  220  TRP220      0.0003
    153  CD1       25.8110   -8.9130   15.8490 C.ar  220  TRP220      0.0946
    154  CD2       23.7450   -9.7730   15.8930 C.ar  220  TRP220      0.0152
    155  NE1       24.9610   -7.9320   16.2980 N.ar  220  TRP220     -0.2442
    156  CE2       23.6860   -8.4320   16.3350 C.ar  220  TRP220      0.0810
    157  CE3       22.5590  -10.5200   15.8360 C.ar  220  TRP220      0.0012
    158  CZ2       22.4890   -7.8220   16.7170 C.ar  220  TRP220      0.0191
    159  CZ3       21.3670   -9.9120   16.2170 C.ar  220  TRP220      0.0001
    160  CH2       21.3430   -8.5740   16.6520 C.ar  220  TRP220      0.0015
    161  N         23.6260   -3.1860   16.6840 N.3   299  CYS299     -0.1221
    162  CA        22.3240   -3.6500   16.2290 C.3   299  CYS299      0.1808
    163  C         21.9650   -3.2010   14.8170 C.2   299  CYS299      0.2601
    164  O         21.4510   -2.1030   14.5830 O.2   299  CYS299     -0.2717
    165  CB        21.2420   -3.1950   17.2110 C.3   299  CYS299      0.0970
    166  SG        19.8680   -4.3390   17.3460 S.3   299  CYS299     -0.0800
    167  N         22.2390   -4.0560   13.8420 N.am  300  ALA300     -0.1965
    168  CA        21.9390   -3.7880   12.4430 C.3   300  ALA300      0.1728
    169  C         21.9320   -5.1530   11.7660 C.2   300  ALA300      0.2616
    170  O         22.4160   -6.1460   12.3190 O.2   300  ALA300     -0.2715
    171  CB        23.0000   -2.8940   11.8300 C.3   300  ALA300      0.0334
    172  N         21.3820   -5.2500   10.5630 N.am  301  LEU301     -0.1977
    173  CA        21.3240   -6.5230    9.8600 C.3   301  LEU301      0.1596
    174  C         21.5980   -6.2930    8.3810 C.2   301  LEU301      0.2287
    175  O         20.9150   -5.5220    7.7120 O.2   301  LEU301     -0.2864
    176  CB        19.9420   -7.1480   10.0520 C.3   301  LEU301      0.0297
    177  CG        19.7910   -8.6680   10.0870 C.3   301  LEU301      0.0022
    178  CD1       20.8420   -9.3010   10.9850 C.3   301  LEU301      0.0001
    179  CD2       18.3950   -8.9990   10.5890 C.3   301  LEU301      0.0001
    180  N         18.8710   -6.3800    5.5700 N.3   304  CYS304     -0.1235
    181  CA        17.8900   -5.3000    5.4860 C.3   304  CYS304      0.1677
    182  C         18.4290   -4.0170    4.8600 C.2   304  CYS304      0.2270
    183  O         17.6970   -3.0430    4.6630 O.2   304  CYS304     -0.2867
    184  CB        17.3700   -4.9710    6.8850 C.3   304  CYS304      0.0956
    185  SG        16.6200   -6.3540    7.7460 S.3   304  CYS304     -0.0801
    186  N         15.5630    1.4420    5.2400 N.3   310  TYR310     -0.1228
    187  CA        16.6820    1.0820    6.1050 C.3   310  TYR310      0.1721
    188  C         17.0950    2.4060    6.7500 C.2   310  TYR310      0.2437
    189  O         17.3910    3.3830    6.0580 O.2   310  TYR310     -0.2733
    190  CB        17.8270    0.5020    5.2860 C.3   310  TYR310      0.0547
    191  CG        18.9880    0.0470    6.1330 C.ar  310  TYR310     -0.0200
    192  CD1       18.8710   -1.0590    6.9770 C.ar  310  TYR310     -0.0009
    193  CD2       20.2090    0.7170    6.0870 C.ar  310  TYR310     -0.0009
    194  CE1       19.9510   -1.4870    7.7520 C.ar  310  TYR310      0.0417
    195  CE2       21.2870    0.3000    6.8530 C.ar  310  TYR310      0.0417
    196  CZ        21.1540   -0.8010    7.6800 C.ar  310  TYR310      0.1957
    197  OH        22.2390   -1.2120    8.4170 O.3   310  TYR310     -0.2866
    198  N         17.1460    2.4490    8.0870 N.am  311  PRO311     -0.2718
    199  CA        17.5030    3.6890    8.7790 C.3   311  PRO311      0.1535
    200  C         18.9500    4.1220    8.9170 C.2   311  PRO311      0.2598
    201  O         19.2270    5.2880    9.1860 O.2   311  PRO311     -0.2715
    202  CB        16.8580    3.5110   10.1470 C.3   311  PRO311      0.0310
    203  CG        16.9630    2.0210   10.3940 C.3   311  PRO311      0.0237
    204  CD        16.8860    1.3480    9.0340 C.3   311  PRO311      0.0939
    205  N         19.9120    3.2320    8.7210 N.am  312  PHE312     -0.1974
    206  CA        21.2980    3.6080    8.9450 C.3   312  PHE312      0.1639
    207  C         22.1830    4.0260    7.7760 C.2   312  PHE312      0.2290
    208  O         23.4050    3.9970    7.8700 O.2   312  PHE312     -0.2864
    209  CB        21.9680    2.5050    9.7710 C.3   312  PHE312      0.0560
    210  CG        21.1620    2.0930   10.9800 C.ar  312  PHE312     -0.0200
    211  CD1       20.5000    3.0520   11.7490 C.ar  312  PHE312     -0.0042
    212  CD2       21.0360    0.7540   11.3330 C.ar  312  PHE312     -0.0042
    213  CE1       19.7210    2.6800   12.8520 C.ar  312  PHE312     -0.0003
    214  CE2       20.2600    0.3700   12.4330 C.ar  312  PHE312     -0.0003
    215  CZ        19.6000    1.3360   13.1940 C.ar  312  PHE312     -0.0000
@<TRIPOS>BOND
     1   183   182    2
     2   182   181    1
     3   186   187    1
     4   190   187    1
     5   190   191    1
     6    96    97    2
     7    96    95    1
     8   181   180    1
     9   181   184    1
    10    95    94    1
    11    95    98    1
    12   189   188    2
    13   193   191   ar
    14   193   195   ar
    15   187   188    1
    16   191   192   ar
    17   188   198   am
    18   100   102   ar
    19   100    99   ar
    20   195   196   ar
    21    98    99    1
    22   184   185    1
    23   192   194   ar
    24   119   118    2
    25   102   104   ar
    26    93    91    1
    27   118   117    1
    28    99   101   ar
    29    91    88    1
    30    91    92    1
    31   196   194   ar
    32   196   197    1
    33   175   174    2
    34   207   208    2
    35   207   206    1
    36    88    89    1
    37    88    87    1
    38    89    90    2
    39   198   199    1
    40   198   204    1
    41   104   103   ar
    42   174   173    1
    43   101   103   ar
    44   117   120    1
    45   117   116    1
    46   205   200   am
    47   205   206    1
    48   199   200    1
    49   199   202    1
    50   200   201    2
    51   206   209    1
    52    60    59    2
    53   204   203    1
    54   120   121    1
    55   116   107   am
    56   209   210    1
    57   173   176    1
    58   173   172    1
    59   123   121   ar
    60   123   125   ar
    61    59    58    1
    62   176   177    1
    63   177   179    1
    64   177   178    1
    65   202   203    1
    66   108   107    2
    67   121   122   ar
    68   107   106    1
    69    61    58    1
    70    61    62    1
    71   172   169   am
    72   105   106    1
    73    58    57    1
    74   210   212   ar
    75   210   211   ar
    76   125   126   ar
    77   212   214   ar
    78   106   109    1
    79   122   124   ar
    80   211   213   ar
    81   169   170    2
    82   169   168    1
    83   171   168    1
    84    76    75    2
    85    75    74    1
    86    57    45   am
    87   126   124   ar
    88   214   215   ar
    89   168   167    1
    90    51    49   ar
    91    51    52   ar
    92    77    74    1
    93    77    78    1
    94   109   110    1
    95    46    45    2
    96   213   215   ar
    97   130   129    2
    98    83    85   ar
    99    83    80   ar
   100    49    48   ar
   101    54    52   ar
   102    54    56   ar
   103    74    73    1
   104    45    44    1
   105    52    50   ar
   106    85    86   ar
   107    78    80   ar
   108    78    79   ar
   109    80    82   ar
   110   167   163   am
   111   111   110   ar
   112   111   113   ar
   113   110   112   ar
   114    56    55   ar
   115    48    50   ar
   116    48    47    1
   117   129   128    1
   118    73    65   am
   119    50    53   ar
   120    86    84   ar
   121    79    81   ar
   122   164   163    2
   123    82    84   ar
   124    82    81   ar
   125    44    47    1
   126    44    43    1
   127   131   128    1
   128   131   132    1
   129   163   162    1
   130    55    53   ar
   131   113   115   ar
   132   112   114   ar
   133   151   152    1
   134   151   148    1
   135   128   127    1
   136    65    66    2
   137    65    64    1
   138   152   153   ar
   139   152   154   ar
   140   157   154   ar
   141   157   159   ar
   142   153   155   ar
   143   132   134   am
   144   132   133    2
   145   154   156   ar
   146   150   149    2
   147    63    64    1
   148   115   114   ar
   149   148   149    1
   150   148   147    1
   151   159   160   ar
   152   162   161    1
   153   162   165    1
   154   155   156   ar
   155    21    19    1
   156   156   158   ar
   157    67    64    1
   158    67    68    1
   159   160   158   ar
   160   165   166    1
   161    68    70   ar
   162    68    69   ar
   163    19    20    1
   164    19    16    1
   165    70    72   ar
   166   146   145    1
   167    69    71   ar
   168    42    40   am
   169    16    15    1
   170    16    17    1
   171    72    71   ar
   172    40    41    2
   173    40    39    1
   174    18    17    2
   175   145   144   ar
   176   145   143   ar
   177    17    22   am
   178   144   142   ar
   179    39    38    1
   180    12    14   ar
   181    12    10   ar
   182   143   141   ar
   183    14    13   ar
   184    22    23    1
   185    10     9   ar
   186    10     8   ar
   187     9     7   ar
   188   142   140   ar
   189    13    11   ar
   190    38    35    1
   191    30    28   ar
   192    30    32   ar
   193   141   140   ar
   194    28    27   ar
   195    23    24    1
   196    23    26    1
   197    34    35    1
   198    34    24   am
   199     7     6   ar
   200     8    11   ar
   201     8     6   ar
   202   140   139    1
   203    33    32    1
   204    35    36    1
   205    24    25    2
   206    32    31   ar
   207     6     5    1
   208    27    26    1
   209    27    29   ar
   210   139   136    1
   211    31    29   ar
   212    36    37    2
   213     5     2    1
   214   138   137    2
   215   137   136    1
   216   135   136    1
   217     2     3    1
   218     2     1    1
   219     3     4    2
