@<TRIPOS>MOLECULE
tmp/1t41A01.pdb
 193 199 0 0 0
SMALL
GASTEIGER

@<TRIPOS>ATOM
      1  N          1.9580    5.5790    6.7570 N.3    21  TRP21      -0.1241
      2  CA         0.7810    5.8580    7.5580 C.3    21  TRP21       0.1605
      3  C          1.1580    5.8880    9.0300 C.2    21  TRP21       0.2264
      4  O          1.7890    4.9620    9.5250 O.2    21  TRP21      -0.2867
      5  CB        -0.3000    4.8060    7.3090 C.3    21  TRP21       0.0550
      6  CG        -1.5090    5.0280    8.1780 C.ar   21  TRP21       0.0003
      7  CD1       -2.1350    6.1980    8.4730 C.ar   21  TRP21       0.0946
      8  CD2       -2.2310    3.9920    8.8550 C.ar   21  TRP21       0.0152
      9  NE1       -3.1990    5.9580    9.3150 N.ar   21  TRP21      -0.2442
     10  CE2       -3.2910    4.6240    9.5420 C.ar   21  TRP21       0.0810
     11  CE3       -2.1190    2.6100    8.9120 C.ar   21  TRP21       0.0012
     12  CZ2       -4.2330    3.9270   10.3150 C.ar   21  TRP21       0.0191
     13  CZ3       -3.0330    1.9270    9.6790 C.ar   21  TRP21       0.0001
     14  CH2       -4.0530    2.5820   10.3440 C.ar   21  TRP21       0.0015
     15  N         -4.3290   11.0480    2.5280 N.3    48  VAL48      -0.1231
     16  CA        -5.0690   10.8960    3.8000 C.3    48  VAL48       0.1692
     17  C         -4.1180   10.7190    4.9670 C.2    48  VAL48       0.2592
     18  O         -4.5380   10.8820    6.1220 O.2    48  VAL48      -0.2718
     19  CB        -6.0790    9.7300    3.6720 C.3    48  VAL48       0.0266
     20  CG1       -5.3920    8.3980    3.7120 C.3    48  VAL48       0.0020
     21  CG2       -7.1820    9.8340    4.7040 C.3    48  VAL48       0.0020
     22  N         -2.8340   10.4090    4.7320 N.am   49  TYR49      -0.1976
     23  CA        -1.8880   10.2380    5.8380 C.3    49  TYR49       0.1639
     24  C         -1.4640   11.5650    6.4550 C.2    49  TYR49       0.2290
     25  O         -0.8710   11.5800    7.5190 O.2    49  TYR49      -0.2864
     26  CB        -0.6460    9.4570    5.4380 C.3    49  TYR49       0.0560
     27  CG        -0.9330    8.0600    4.8730 C.ar   49  TYR49      -0.0198
     28  CD1       -2.1670    7.4530    5.0160 C.ar   49  TYR49      -0.0009
     29  CD2        0.0710    7.3770    4.1880 C.ar   49  TYR49      -0.0009
     30  CE1       -2.4150    6.1960    4.4820 C.ar   49  TYR49       0.0417
     31  CE2       -0.1760    6.1180    3.6440 C.ar   49  TYR49       0.0417
     32  CZ        -1.4110    5.5620    3.7930 C.ar   49  TYR49       0.1957
     33  OH        -1.6500    4.3020    3.2290 O.3    49  TYR49      -0.2866
     34  N         -7.7310    9.8070   -2.4360 N.3    80  TRP80      -0.1227
     35  CA        -8.6190    9.5480   -1.3110 C.3    80  TRP80       0.1737
     36  C        -10.0660    9.4890   -1.7790 C.2    80  TRP80       0.2595
     37  O        -10.4770    9.9840   -2.8350 O.2    80  TRP80      -0.2718
     38  CB        -8.3680   10.5720   -0.1480 C.3    80  TRP80       0.0564
     39  CG        -9.2310   10.1890    1.0110 C.ar   80  TRP80       0.0003
     40  CD1      -10.2850   10.8850    1.5360 C.ar   80  TRP80       0.0946
     41  CD2       -9.1870    8.9350    1.7020 C.ar   80  TRP80       0.0152
     42  NE1      -10.8740   10.1630    2.5210 N.ar   80  TRP80      -0.2442
     43  CE2      -10.2370    8.9590    2.6560 C.ar   80  TRP80       0.0810
     44  CE3       -8.3920    7.8090    1.6560 C.ar   80  TRP80       0.0012
     45  CZ2      -10.4870    7.8970    3.5050 C.ar   80  TRP80       0.0191
     46  CZ3       -8.6260    6.7490    2.4880 C.ar   80  TRP80       0.0001
     47  CH2       -9.6680    6.8050    3.4210 C.ar   80  TRP80       0.0015
     48  N        -10.9080    8.8430   -0.9570 N.am   81  CYS81      -0.1970
     49  CA       -12.2870    8.5170   -1.2620 C.3    81  CYS81       0.1712
     50  C        -13.1550    9.7050   -1.5370 C.2    81  CYS81       0.2296
     51  O        -14.1530    9.5750   -2.2600 O.2    81  CYS81      -0.2864
     52  CB       -12.8850    7.7350   -0.0950 C.3    81  CYS81       0.0983
     53  SG       -12.0120    6.1740    0.2370 S.3    81  CYS81      -0.0798
     54  N         -7.3660    4.6120   -3.6110 N.3   111  HIS111     -0.1226
     55  CA        -7.0510    4.1020   -2.2640 C.3   111  HIS111      0.1752
     56  C         -8.0370    3.0350   -1.8040 C.2   111  HIS111      0.2596
     57  O         -7.6320    2.0300   -1.1960 O.2   111  HIS111     -0.2718
     58  CB        -6.9930    5.2850   -1.3010 C.3   111  HIS111      0.0759
     59  CG        -6.1900    5.0850   -0.0570 C.ar  111  HIS111      0.0818
     60  ND1       -5.5150    6.1450    0.5350 N.ar  111  HIS111     -0.2268
     61  CD2       -5.9980    3.9530    0.6870 C.ar  111  HIS111      0.1154
     62  CE1       -4.9360    5.6660    1.5990 C.ar  111  HIS111      0.1986
     63  NE2       -5.1920    4.3580    1.7480 N.ar  111  HIS111     -0.2212
     64  N         -9.3210    3.2550   -2.0480 N.am  112  TRP112     -0.1976
     65  CA       -10.4010    2.3180   -1.7750 C.3   112  TRP112      0.1640
     66  C        -11.3930    2.4050   -2.9270 C.2   112  TRP112      0.2290
     67  O        -11.5320    3.4610   -3.5400 O.2   112  TRP112     -0.2864
     68  CB       -11.1540    2.6900   -0.4590 C.3   112  TRP112      0.0576
     69  CG       -10.3240    2.4360    0.7630 C.ar  112  TRP112      0.0006
     70  CD1       -9.3900    3.2380    1.3000 C.ar  112  TRP112      0.0946
     71  CD2      -10.3660    1.2430    1.5670 C.ar  112  TRP112      0.0152
     72  NE1       -8.8200    2.6590    2.3950 N.ar  112  TRP112     -0.2442
     73  CE2       -9.4150    1.4050    2.5820 C.ar  112  TRP112      0.0810
     74  CE3      -11.1030    0.0850    1.5670 C.ar  112  TRP112      0.0012
     75  CZ2       -9.1770    0.4240    3.5440 C.ar  112  TRP112      0.0191
     76  CZ3      -10.8710   -0.8890    2.5110 C.ar  112  TRP112      0.0001
     77  CH2       -9.9260   -0.7310    3.5110 C.ar  112  TRP112      0.0015
     78  N        -14.5200    2.6980   -2.6760 N.3   114  THR114     -0.1218
     79  CA       -15.6380    3.4480   -2.1580 C.3   114  THR114      0.1862
     80  C        -15.4490    4.9550   -2.3150 C.2   114  THR114      0.2287
     81  O        -14.5150    5.5130   -1.7310 O.2   114  THR114     -0.2866
     82  CB       -15.8210    3.1480   -0.6630 C.3   114  THR114      0.1770
     83  OG1      -14.5720    3.3940   -0.0040 O.3   114  THR114     -0.2211
     84  CG2      -16.1940    1.7170   -0.3950 C.3   114  THR114      0.0375
     85  N        -16.6590    8.6760   -1.2540 N.3   116  PHE116     -0.1241
     86  CA       -17.3240    9.3700   -0.1630 C.3   116  PHE116      0.1605
     87  C        -17.7100   10.7550   -0.5910 C.2   116  PHE116      0.2264
     88  O        -17.0650   11.3490   -1.4720 O.2   116  PHE116     -0.2867
     89  CB       -16.3930    9.4690    1.0460 C.3   116  PHE116      0.0534
     90  CG       -15.9500    8.1980    1.6870 C.ar  116  PHE116     -0.0203
     91  CD1      -16.4870    6.9620    1.4330 C.ar  116  PHE116     -0.0042
     92  CD2      -14.9090    8.2710    2.6330 C.ar  116  PHE116     -0.0042
     93  CE1      -16.0170    5.8240    2.0740 C.ar  116  PHE116     -0.0003
     94  CE2      -14.4270    7.1410    3.2560 C.ar  116  PHE116     -0.0003
     95  CZ       -14.9820    5.9270    2.9800 C.ar  116  PHE116     -0.0000
     96  N        -12.3000   13.7850    5.7400 N.3   122  PHE122     -0.1227
     97  CA       -11.8790   12.5510    5.0820 C.3   122  PHE122      0.1736
     98  C        -12.9190   11.4410    5.2190 C.2   122  PHE122      0.2595
     99  O        -13.0340   10.6150    4.3240 O.2   122  PHE122     -0.2718
    100  CB       -10.5460   12.0720    5.6110 C.3   122  PHE122      0.0547
    101  CG        -9.3680   12.9280    5.2790 C.ar  122  PHE122     -0.0202
    102  CD1       -9.2370   13.5460    4.0550 C.ar  122  PHE122     -0.0042
    103  CD2       -8.3440   13.0600    6.1730 C.ar  122  PHE122     -0.0042
    104  CE1       -8.1480   14.2860    3.6960 C.ar  122  PHE122     -0.0003
    105  CE2       -7.2550   13.8260    5.8200 C.ar  122  PHE122     -0.0003
    106  CZ        -7.1140   14.3630    4.6030 C.ar  122  PHE122     -0.0000
    107  N        -13.6170   11.4300    6.3490 N.am  123  PHE123     -0.1976
    108  CA       -14.6080   10.4260    6.6450 C.3   123  PHE123      0.1639
    109  C        -15.9150   11.1260    6.9980 C.2   123  PHE123      0.2290
    110  O        -16.2550   11.2920    8.1790 O.2   123  PHE123     -0.2864
    111  CB       -14.2100    9.4720    7.7910 C.3   123  PHE123      0.0560
    112  CG       -13.0280    8.6430    7.4500 C.ar  123  PHE123     -0.0200
    113  CD1      -11.7170    9.0590    7.6580 C.ar  123  PHE123     -0.0042
    114  CD2      -13.2220    7.3840    6.8840 C.ar  123  PHE123     -0.0042
    115  CE1      -10.6810    8.2070    7.3090 C.ar  123  PHE123     -0.0003
    116  CE2      -12.1860    6.5800    6.5420 C.ar  123  PHE123     -0.0003
    117  CZ       -10.9000    6.9920    6.7640 C.ar  123  PHE123     -0.0000
    118  N         -5.3300    2.5510   15.0990 N.3   219  PRO219     -0.2102
    119  CA        -6.0070    3.1670   16.2420 C.3   219  PRO219      0.1504
    120  C         -7.1170    2.3270   16.8040 C.2   219  PRO219      0.2575
    121  O         -7.5250    2.5510   17.9680 O.2   219  PRO219     -0.2718
    122  CB        -6.5350    4.5030   15.7220 C.3   219  PRO219      0.0282
    123  CG        -6.4270    4.4440   14.2400 C.3   219  PRO219      0.0208
    124  CD        -5.3750    3.4090   13.9190 C.3   219  PRO219      0.0893
    125  N         -7.6830    1.3840   16.0960 N.am  220  TRP220     -0.1977
    126  CA        -8.8350    0.6010   16.5300 C.3   220  TRP220      0.1640
    127  C         -8.3960   -0.7540   17.0940 C.2   220  TRP220      0.2290
    128  O         -9.2790   -1.5810   17.3590 O.2   220  TRP220     -0.2864
    129  CB        -9.8820    0.4330   15.4060 C.3   220  TRP220      0.0576
    130  CG        -9.2340   -0.1530   14.2090 C.ar  220  TRP220      0.0006
    131  CD1       -8.9860   -1.4910   13.9590 C.ar  220  TRP220      0.0946
    132  CD2       -8.7220    0.5680   13.1090 C.ar  220  TRP220      0.0152
    133  NE1       -8.3570   -1.6250   12.7500 N.ar  220  TRP220     -0.2442
    134  CE2       -8.1800   -0.3640   12.2050 C.ar  220  TRP220      0.0810
    135  CE3       -8.6470    1.9170   12.7370 C.ar  220  TRP220      0.0012
    136  CZ2       -7.5790   -0.0130   11.0030 C.ar  220  TRP220      0.0191
    137  CZ3       -8.0610    2.2740   11.5450 C.ar  220  TRP220      0.0001
    138  CH2       -7.5490    1.3210   10.6880 C.ar  220  TRP220      0.0015
    139  N         -7.6260   -4.0760    8.6460 N.3   299  CYS299     -0.1221
    140  CA        -7.8380   -2.7900    8.0340 C.3   299  CYS299      0.1808
    141  C         -9.1810   -2.7520    7.3090 C.2   299  CYS299      0.2601
    142  O         -9.3510   -3.1660    6.1610 O.2   299  CYS299     -0.2717
    143  CB        -6.6780   -2.4470    7.0910 C.3   299  CYS299      0.0970
    144  SG        -6.6740   -0.7150    6.6380 S.3   299  CYS299     -0.0800
    145  N        -10.1670   -2.2690    8.0800 N.am  300  ALA300     -0.1965
    146  CA       -11.5300   -2.1430    7.6430 C.3   300  ALA300      0.1728
    147  C        -12.2270   -1.2660    8.6420 C.2   300  ALA300      0.2616
    148  O        -11.7210   -1.0900    9.7520 O.2   300  ALA300     -0.2715
    149  CB       -12.2010   -3.5040    7.5130 C.3   300  ALA300      0.0334
    150  N        -13.3580   -0.6930    8.3140 N.am  301  LEU301     -0.1977
    151  CA       -14.1510    0.1240    9.1980 C.3   301  LEU301      0.1596
    152  C        -15.6210   -0.2750    9.1660 C.2   301  LEU301      0.2287
    153  O        -16.2420   -0.3430    8.1100 O.2   301  LEU301     -0.2864
    154  CB       -14.0980    1.5730    8.7940 C.3   301  LEU301      0.0297
    155  CG       -12.8180    2.2680    9.0500 C.3   301  LEU301      0.0022
    156  CD1      -12.8660    3.6580    8.3340 C.3   301  LEU301      0.0001
    157  CD2      -12.4990    2.4760   10.5350 C.3   301  LEU301      0.0001
    158  N        -18.1390    1.7940    7.1830 N.3   304  CYS304     -0.1235
    159  CA       -18.1500    1.7240    5.7360 C.3   304  CYS304      0.1677
    160  C        -18.8120    0.4780    5.2000 C.2   304  CYS304      0.2270
    161  O        -18.9140    0.3270    3.9770 O.2   304  CYS304     -0.2867
    162  CB       -16.7360    1.8240    5.2340 C.3   304  CYS304      0.0956
    163  SG       -15.9250    3.4010    5.5760 S.3   304  CYS304     -0.0801
    164  N        -18.3260   -1.3870   -0.7320 N.3   310  TYR310     -0.1228
    165  CA       -17.5190   -1.9970    0.3390 C.3   310  TYR310      0.1721
    166  C        -16.8980   -3.2840   -0.1550 C.2   310  TYR310      0.2437
    167  O        -17.6310   -4.1260   -0.6950 O.2   310  TYR310     -0.2733
    168  CB       -18.3600   -2.2700    1.5690 C.3   310  TYR310      0.0547
    169  CG       -17.5930   -2.8610    2.7100 C.ar  310  TYR310     -0.0200
    170  CD1      -16.7480   -2.0900    3.4920 C.ar  310  TYR310     -0.0009
    171  CD2      -17.7100   -4.2040    3.0310 C.ar  310  TYR310     -0.0009
    172  CE1      -16.0480   -2.6480    4.5570 C.ar  310  TYR310      0.0417
    173  CE2      -17.0280   -4.7360    4.1090 C.ar  310  TYR310      0.0417
    174  CZ       -16.2170   -3.9570    4.8620 C.ar  310  TYR310      0.1957
    175  OH       -15.5140   -4.5020    5.9350 O.3   310  TYR310     -0.2866
    176  N        -15.5870   -3.4800   -0.0480 N.am  311  PRO311     -0.2718
    177  CA       -14.9370   -4.5800   -0.7720 C.3   311  PRO311      0.1535
    178  C        -14.9790   -5.9410   -0.0960 C.2   311  PRO311      0.2598
    179  O        -14.6460   -6.9260   -0.7660 O.2   311  PRO311     -0.2715
    180  CB       -13.5040   -4.1010   -0.9440 C.3   311  PRO311      0.0310
    181  CG       -13.2600   -3.1870    0.2170 C.3   311  PRO311      0.0237
    182  CD       -14.5750   -2.4940    0.3960 C.3   311  PRO311      0.0939
    183  N        -15.2800   -6.0040    1.1910 N.am  312  PHE312     -0.1974
    184  CA       -14.9790   -7.2230    1.9590 C.3   312  PHE312      0.1639
    185  C        -16.1860   -8.0600    2.2890 C.2   312  PHE312      0.2290
    186  O        -16.0760   -8.9820    3.0860 O.2   312  PHE312     -0.2864
    187  CB       -14.1670   -6.8580    3.2280 C.3   312  PHE312      0.0560
    188  CG       -12.9270   -6.0230    2.9520 C.ar  312  PHE312     -0.0200
    189  CD1      -12.0940   -6.2680    1.8850 C.ar  312  PHE312     -0.0042
    190  CD2      -12.6400   -4.9860    3.7960 C.ar  312  PHE312     -0.0042
    191  CE1      -10.9890   -5.4660    1.6730 C.ar  312  PHE312     -0.0003
    192  CE2      -11.5060   -4.2000    3.6050 C.ar  312  PHE312     -0.0003
    193  CZ       -10.6870   -4.4520    2.5270 C.ar  312  PHE312     -0.0000
@<TRIPOS>BOND
     1    54    55    1
     2    67    66    2
     3    66    65    1
     4    37    36    2
     5    78    79    1
     6    34    35    1
     7    80    79    1
     8    80    81    2
     9    55    56    1
    10    55    58    1
    11    51    50    2
    12    79    82    1
    13    64    56   am
    14    64    65    1
    15    56    57    2
    16    36    35    1
    17    36    48   am
    18    65    68    1
    19    50    49    1
    20    88    87    2
    21    35    38    1
    22    58    59    1
    23    49    48    1
    24    49    52    1
    25    85    86    1
    26   180   177    1
    27   180   181    1
    28   177   178    1
    29   177   176    1
    30   179   178    2
    31   164   165    1
    32   167   166    2
    33    82    84    1
    34    82    83    1
    35    87    86    1
    36    68    69    1
    37    86    89    1
    38   166   176   am
    39   166   165    1
    40    38    39    1
    41   178   183   am
    42    52    53    1
    43    59    60   ar
    44    59    61   ar
    45   176   182    1
    46   181   182    1
    47   165   168    1
    48    60    62   ar
    49    61    63   ar
    50    69    70   ar
    51    69    71   ar
    52    39    40   ar
    53    39    41   ar
    54    89    90    1
    55   183   184    1
    56    70    72   ar
    57    91    90   ar
    58    91    93   ar
    59    40    42   ar
    60    71    74   ar
    61    71    73   ar
    62    74    76   ar
    63   168   169    1
    64    62    63   ar
    65    44    41   ar
    66    44    46   ar
    67   191   189   ar
    68   191   193   ar
    69    90    92   ar
    70    41    43   ar
    71   189   188   ar
    72   184   185    1
    73   184   187    1
    74    93    95   ar
    75   185   186    2
    76    72    73   ar
    77    46    47   ar
    78    76    77   ar
    79    42    43   ar
    80   193   192   ar
    81    15    16    1
    82    73    75   ar
    83    92    94   ar
    84    43    45   ar
    85   169   171   ar
    86   169   170   ar
    87   188   187    1
    88   188   190   ar
    89    95    94   ar
    90   171   173   ar
    91    33    32    1
    92    47    45   ar
    93   170   172   ar
    94    77    75   ar
    95   192   190   ar
    96    31    32   ar
    97    31    29   ar
    98    19    20    1
    99    19    16    1
   100    19    21    1
   101   104   102   ar
   102   104   106   ar
   103    32    30   ar
   104    16    17    1
   105   161   160    2
   106   102   101   ar
   107   173   174   ar
   108    29    27   ar
   109    99    98    2
   110    30    28   ar
   111   172   174   ar
   112   106   105   ar
   113    22    17   am
   114    22    23    1
   115   174   175    1
   116    27    28   ar
   117    27    26    1
   118    17    18    2
   119    97    98    1
   120    97   100    1
   121    97    96    1
   122   160   159    1
   123    98   107   am
   124   162   163    1
   125   162   159    1
   126   101   100    1
   127   101   103   ar
   128    26    23    1
   129   159   158    1
   130   105   103   ar
   131    23    24    1
   132   142   141    2
   133   107   108    1
   134    24    25    2
   135   116   117   ar
   136   116   114   ar
   137   144   143    1
   138   108   109    1
   139   108   111    1
   140     1     2    1
   141   117   115   ar
   142   114   112   ar
   143   109   110    2
   144   143   140    1
   145     5     2    1
   146     5     6    1
   147   115   113   ar
   148   141   140    1
   149   141   145   am
   150   112   113   ar
   151   112   111    1
   152   149   146    1
   153     2     3    1
   154   146   145    1
   155   146   147    1
   156   140   139    1
   157   153   152    2
   158     6     7   ar
   159     6     8   ar
   160   150   147   am
   161   150   151    1
   162   156   155    1
   163     7     9   ar
   164   147   148    2
   165   154   155    1
   166   154   151    1
   167     8    11   ar
   168     8    10   ar
   169    11    13   ar
   170     3     4    2
   171   155   157    1
   172   152   151    1
   173     9    10   ar
   174    10    12   ar
   175    13    14   ar
   176    12    14   ar
   177   138   136   ar
   178   138   137   ar
   179   136   134   ar
   180   137   135   ar
   181   134   133   ar
   182   134   132   ar
   183   135   132   ar
   184   133   131   ar
   185   132   130   ar
   186   124   123    1
   187   124   118    1
   188   131   130   ar
   189   130   129    1
   190   123   122    1
   191   118   119    1
   192   129   126    1
   193   122   119    1
   194   125   126    1
   195   125   120   am
   196   119   120    1
   197   126   127    1
   198   120   121    2
   199   127   128    2
