@<TRIPOS>MOLECULE
tmp/1t46A00.pdb
 228 216 0 0 0
SMALL
GASTEIGER

@<TRIPOS>ATOM
      1  N         16.5710   27.0360   25.7610 N.3     7  ILE7       -0.1245
      2  CA        15.6080   26.8200   26.8260 C.3     7  ILE7        0.1561
      3  C         15.4020   28.1220   27.5880 C.2     7  ILE7        0.2260
      4  O         16.3370   28.6900   28.1580 O.2     7  ILE7       -0.2867
      5  CB        16.0020   25.6170   27.7440 C.3     7  ILE7        0.0252
      6  CG1       14.9030   25.3440   28.7770 C.3     7  ILE7        0.0019
      7  CG2       17.3480   25.8390   28.4310 C.3     7  ILE7        0.0019
      8  CD1       14.0190   24.1660   28.4220 C.3     7  ILE7        0.0001
      9  N         31.1490   30.3330   50.8640 N.3    31  LEU31      -0.1245
     10  CA        31.9380   29.6600   49.8400 C.3    31  LEU31       0.1561
     11  C         32.1540   30.5640   48.6300 C.2    31  LEU31       0.2260
     12  O         33.0480   30.3260   47.8160 O.2    31  LEU31      -0.2867
     13  CB        31.2550   28.3550   49.4260 C.3    31  LEU31       0.0270
     14  CG        31.0740   27.3100   50.5310 C.3    31  LEU31       0.0019
     15  CD1       30.1810   26.1920   50.0290 C.3    31  LEU31       0.0001
     16  CD2       32.4210   26.7560   50.9830 C.3    31  LEU31       0.0001
     17  N         26.9890   31.8820   48.1110 N.3    39  VAL39      -0.1245
     18  CA        26.8830   30.4570   48.3940 C.3    39  VAL39       0.1561
     19  C         27.4970   30.1950   49.7520 C.2    39  VAL39       0.2260
     20  O         28.5910   30.6790   50.0460 O.2    39  VAL39      -0.2867
     21  CB        27.5410   29.5890   47.2940 C.3    39  VAL39       0.0252
     22  CG1       27.5270   28.1060   47.6830 C.3    39  VAL39       0.0019
     23  CG2       26.8060   29.7810   45.9760 C.3    39  VAL39       0.0019
     24  N         25.6620   22.6520   49.8700 N.3    57  ALA57      -0.1231
     25  CA        25.9300   24.0370   49.5210 C.3    57  ALA57       0.1694
     26  C         24.5930   24.7040   49.2840 C.2    57  ALA57       0.2592
     27  O         23.6710   24.0860   48.7470 O.2    57  ALA57      -0.2718
     28  CB        26.8030   24.1230   48.2720 C.3    57  ALA57       0.0304
     29  N         24.4850   25.9650   49.6960 N.am   58  VAL58      -0.1966
     30  CA        23.2400   26.7040   49.5860 C.3    58  VAL58       0.1727
     31  C         23.5080   28.0470   48.9290 C.2    58  VAL58       0.2616
     32  O         24.3400   28.8190   49.4050 O.2    58  VAL58      -0.2715
     33  CB        22.5970   26.9420   50.9740 C.3    58  VAL58       0.0290
     34  CG1       21.3770   27.8390   50.8560 C.3    58  VAL58       0.0023
     35  CG2       22.2100   25.6150   51.6310 C.3    58  VAL58       0.0023
     36  N         22.7940   28.3210   47.8450 N.am   59  LYS59      -0.1977
     37  CA        22.8800   29.6160   47.1830 C.3    59  LYS59       0.1596
     38  C         21.6650   30.4120   47.5630 C.2    59  LYS59       0.2287
     39  O         20.5340   29.9620   47.3940 O.2    59  LYS59      -0.2864
     40  CB        22.9500   29.4770   45.6630 C.3    59  LYS59       0.0298
     41  CG        23.3660   30.7670   44.9540 C.3    59  LYS59       0.0038
     42  CD        23.3560   30.6110   43.4360 C.3    59  LYS59       0.0206
     43  CE        24.6040   29.9230   42.9300 C.3    59  LYS59       0.1093
     44  NZ        24.6370   29.9390   41.4470 N.3    59  LYS59      -0.1314
     45  N         17.7230   29.5980   37.4370 N.3    76  GLU76      -0.1245
     46  CA        18.8640   28.6940   37.6420 C.3    76  GLU76       0.1567
     47  C         18.4240   27.3830   38.2940 C.2    76  GLU76       0.2260
     48  O         18.8850   26.2970   37.9130 O.2    76  GLU76      -0.2867
     49  CB        19.9400   29.3740   38.4930 C.3    76  GLU76       0.0388
     50  CG        21.1110   28.4660   38.8440 C.3    76  GLU76       0.1160
     51  CD        22.2160   29.1750   39.5970 C.2    76  GLU76       0.3649
     52  OE1       23.3810   28.7550   39.4560 O.co2  76  GLU76      -0.2457
     53  OE2       21.9300   30.1470   40.3230 O.co2  76  GLU76      -0.2457
     54  N         16.6290   25.3620   35.6500 N.3    79  VAL79      -0.1231
     55  CA        17.6160   24.8390   34.7030 C.3    79  VAL79       0.1692
     56  C         18.3000   23.6050   35.2830 C.2    79  VAL79       0.2591
     57  O         18.4060   22.5780   34.6080 O.2    79  VAL79      -0.2718
     58  CB        18.6430   25.9250   34.3010 C.3    79  VAL79       0.0266
     59  CG1       19.8800   25.3210   33.6260 C.3    79  VAL79       0.0020
     60  CG2       17.9760   26.9310   33.3890 C.3    79  VAL79       0.0020
     61  N         18.7330   23.6970   36.5400 N.am   80  LEU80      -0.1980
     62  CA        19.3650   22.5630   37.2100 C.3    80  LEU80       0.1596
     63  C         18.4140   21.3770   37.2940 C.2    80  LEU80       0.2287
     64  O         18.8160   20.2390   37.0710 O.2    80  LEU80      -0.2864
     65  CB        19.8470   22.9460   38.6100 C.3    80  LEU80       0.0297
     66  CG        21.1630   23.7150   38.7410 C.3    80  LEU80       0.0022
     67  CD1       21.3610   24.1140   40.1940 C.3    80  LEU80       0.0001
     68  CD2       22.3480   22.8800   38.2530 C.3    80  LEU80       0.0001
     69  N         18.2120   19.8430   33.8990 N.3    83  LEU83      -0.1245
     70  CA        19.4220   19.0900   33.5540 C.3    83  LEU83       0.1561
     71  C         19.4320   17.7330   34.2290 C.2    83  LEU83       0.2260
     72  O         19.8950   16.7510   33.6590 O.2    83  LEU83      -0.2867
     73  CB        20.6840   19.8640   33.9380 C.3    83  LEU83       0.0270
     74  CG        20.9750   21.0950   33.0770 C.3    83  LEU83       0.0019
     75  CD1       22.1700   21.8420   33.6380 C.3    83  LEU83       0.0001
     76  CD2       21.1870   20.7390   31.6110 C.3    83  LEU83       0.0001
     77  N         28.1380   17.1660   36.8600 N.3    89  ILE89      -0.1231
     78  CA        27.5390   18.4850   37.0220 C.3    89  ILE89       0.1692
     79  C         27.0640   18.5610   38.4590 C.2    89  ILE89       0.2591
     80  O         26.6690   17.5490   39.0380 O.2    89  ILE89      -0.2718
     81  CB        26.3630   18.6680   36.0320 C.3    89  ILE89       0.0266
     82  CG1       26.8560   18.4880   34.5820 C.3    89  ILE89       0.0019
     83  CG2       25.7100   20.0510   36.2040 C.3    89  ILE89       0.0020
     84  CD1       25.7570   18.0920   33.5780 C.3    89  ILE89       0.0001
     85  N         27.1040   19.7540   39.0450 N.am   90  VAL90      -0.1980
     86  CA        26.5920   19.9260   40.4060 C.3    90  VAL90       0.1595
     87  C         25.1570   19.3990   40.4770 C.2    90  VAL90       0.2287
     88  O         24.3540   19.6320   39.5570 O.2    90  VAL90      -0.2864
     89  CB        26.6640   21.4100   40.8280 C.3    90  VAL90       0.0276
     90  CG1       26.1140   21.6040   42.2280 C.3    90  VAL90       0.0022
     91  CG2       28.0930   21.8790   40.7900 C.3    90  VAL90       0.0022
     92  N         18.7020   27.8600   47.0570 N.3   104  VAL104     -0.1245
     93  CA        18.8660   26.6640   46.2390 C.3   104  VAL104      0.1561
     94  C         19.9240   25.7790   46.8810 C.2   104  VAL104      0.2260
     95  O         21.0010   26.2560   47.2270 O.2   104  VAL104     -0.2867
     96  CB        19.2420   27.0250   44.7850 C.3   104  VAL104      0.0252
     97  CG1       19.4710   25.7720   43.9500 C.3   104  VAL104      0.0019
     98  CG2       18.1480   27.8960   44.1680 C.3   104  VAL104      0.0019
     99  N         22.3690   22.4160   46.8330 N.3   106  THR106     -0.1203
    100  CA        23.0350   21.3710   46.0590 C.3   106  THR106      0.1994
    101  C         23.9650   20.5690   46.9340 C.2   106  THR106      0.2618
    102  O         24.1660   20.8760   48.1050 O.2   106  THR106     -0.2717
    103  CB        23.8740   21.9460   44.8950 C.3   106  THR106      0.1784
    104  OG1       24.9920   22.6710   45.4250 O.3   106  THR106     -0.2211
    105  CG2       23.0790   22.9500   44.0530 C.3   106  THR106      0.0376
    106  N         24.5710   19.5480   46.3380 N.am  107  GLU107     -0.1965
    107  CA        25.6460   18.8480   47.0000 C.3   107  GLU107      0.1733
    108  C         26.7490   19.8330   47.3570 C.2   107  GLU107      0.2616
    109  O         26.9010   20.9020   46.7300 O.2   107  GLU107     -0.2715
    110  CB        26.2080   17.7670   46.0910 C.3   107  GLU107      0.0429
    111  CG        26.9090   18.3190   44.8640 C.3   107  GLU107      0.1163
    112  CD        27.3270   17.2180   43.9290 C.2   107  GLU107      0.3649
    113  OE1       26.9230   17.2630   42.7520 O.co2 107  GLU107     -0.2457
    114  OE2       28.0360   16.2980   44.3880 O.co2 107  GLU107     -0.2457
    115  N         27.5010   19.4550   48.3770 N.am  108  TYR108     -0.1960
    116  CA        28.7180   20.1330   48.7650 C.3   108  TYR108      0.1771
    117  C         29.8720   19.3380   48.1740 C.2   108  TYR108      0.2619
    118  O         29.8510   18.1000   48.1960 O.2   108  TYR108     -0.2715
    119  CB        28.8250   20.1650   50.2880 C.3   108  TYR108      0.0574
    120  CG        30.1540   20.6740   50.7990 C.ar  108  TYR108     -0.0198
    121  CD1       31.1360   19.7890   51.2410 C.ar  108  TYR108     -0.0009
    122  CD2       30.4260   22.0430   50.8420 C.ar  108  TYR108     -0.0009
    123  CE1       32.3540   20.2490   51.7120 C.ar  108  TYR108      0.0417
    124  CE2       31.6490   22.5120   51.3080 C.ar  108  TYR108      0.0417
    125  CZ        32.6030   21.6090   51.7380 C.ar  108  TYR108      0.1957
    126  OH        33.8150   22.0590   52.2060 O.3   108  TYR108     -0.2866
    127  N         30.8640   20.0450   47.6420 N.am  109  CYS109     -0.1968
    128  CA        32.0000   19.4010   46.9800 C.3   109  CYS109      0.1712
    129  C         33.2380   19.5410   47.8470 C.2   109  CYS109      0.2296
    130  O         33.7920   20.6260   47.9870 O.2   109  CYS109     -0.2864
    131  CB        32.2210   20.0020   45.5970 C.3   109  CYS109      0.0983
    132  SG        30.8740   19.5920   44.4630 S.3   109  CYS109     -0.0798
    133  N         36.3450   21.6400   47.0770 N.3   112  GLY112     -0.1210
    134  CA        36.0890   23.0150   46.7190 C.3   112  GLY112      0.1956
    135  C         36.2800   23.3070   45.2480 C.2   112  GLY112      0.2611
    136  O         36.1560   22.4370   44.3890 O.2   112  GLY112     -0.2717
    137  N         36.5800   24.5640   44.9580 N.am  113  ASP113     -0.1973
    138  CA        36.7200   25.0030   43.5870 C.3   113  ASP113      0.1709
    139  C         38.0110   24.4940   42.9440 C.2   113  ASP113      0.2293
    140  O         39.0700   24.5010   43.5730 O.2   113  ASP113     -0.2864
    141  CB        36.7950   26.5180   43.6710 C.3   113  ASP113      0.1436
    142  CG        36.6210   27.1710   42.3600 C.2   113  ASP113      0.3671
    143  OD1       35.4820   27.5810   42.0690 O.co2 113  ASP113     -0.2456
    144  OD2       37.5670   27.3340   41.5700 O.co2 113  ASP113     -0.2456
    145  N         25.6770   18.8800   28.8410 N.3   147  LEU147     -0.1245
    146  CA        25.0260   20.1830   28.7530 C.3   147  LEU147      0.1561
    147  C         24.6160   20.4750   27.3090 C.2   147  LEU147      0.2260
    148  O         23.4860   20.8900   27.0570 O.2   147  LEU147     -0.2867
    149  CB        25.9630   21.2650   29.2630 C.3   147  LEU147      0.0270
    150  CG        25.3930   22.5620   29.8170 C.3   147  LEU147      0.0019
    151  CD1       24.6220   22.3120   31.1050 C.3   147  LEU147      0.0001
    152  CD2       26.5130   23.5540   30.0420 C.3   147  LEU147      0.0001
    153  N         22.0130   23.2210   26.1490 N.3   152  CYS152     -0.1221
    154  CA        22.3570   24.2450   27.0990 C.3   152  CYS152      0.1808
    155  C         23.7720   24.7320   26.8590 C.2   152  CYS152      0.2601
    156  O         24.6650   23.9490   26.5030 O.2   152  CYS152     -0.2717
    157  CB        22.2050   23.7540   28.5300 C.3   152  CYS152      0.0970
    158  SG        20.4770   23.7310   29.0220 S.3   152  CYS152     -0.0800
    159  N         23.9400   26.0390   27.0260 N.am  153  ILE153     -0.1965
    160  CA        25.2220   26.7030   26.8730 C.3   153  ILE153      0.1727
    161  C         25.6320   27.2820   28.2100 C.2   153  ILE153      0.2616
    162  O         24.8340   27.9210   28.8950 O.2   153  ILE153     -0.2715
    163  CB        25.1280   27.7940   25.7870 C.3   153  ILE153      0.0290
    164  CG1       24.8600   27.1400   24.4300 C.3   153  ILE153      0.0022
    165  CG2       26.4130   28.6380   25.7190 C.3   153  ILE153      0.0023
    166  CD1       24.2110   28.0910   23.4220 C.3   153  ILE153      0.0001
    167  N         26.8850   27.0600   28.5880 N.am  154  HIS154     -0.1959
    168  CA        27.3560   27.5000   29.8940 C.3   154  HIS154      0.1787
    169  C         27.5610   29.0080   29.9600 C.2   154  HIS154      0.2620
    170  O         26.9990   29.6740   30.8430 O.2   154  HIS154     -0.2715
    171  CB        28.6170   26.7380   30.3040 C.3   154  HIS154      0.0785
    172  CG        28.9760   26.9280   31.7410 C.ar  154  HIS154      0.0821
    173  ND1       29.3660   28.1460   32.2500 N.ar  154  HIS154     -0.2267
    174  CD2       28.9470   26.0730   32.7890 C.ar  154  HIS154      0.1154
    175  CE1       29.5880   28.0280   33.5470 C.ar  154  HIS154      0.1986
    176  NE2       29.3500   26.7780   33.8960 N.ar  154  HIS154     -0.2212
    177  N         28.3510   29.5290   29.0190 N.am  155  ARG155     -0.1977
    178  CA        28.7160   30.9520   28.9090 C.3   155  ARG155      0.1597
    179  C         29.8640   31.4270   29.8000 C.2   155  ARG155      0.2287
    180  O         30.4040   32.5030   29.5680 O.2   155  ARG155     -0.2864
    181  CB        27.5140   31.8890   29.1130 C.3   155  ARG155      0.0334
    182  CG        26.3990   31.7100   28.1240 C.3   155  ARG155      0.0492
    183  CD        25.4150   32.8560   28.1390 C.3   155  ARG155      0.2205
    184  NE        24.2750   32.5980   27.2670 N.pl3 155  ARG155     -0.0865
    185  CZ        23.6570   33.5320   26.5530 C.cat 155  ARG155      0.5346
    186  NH1       24.0620   34.7950   26.6110 N.pl3 155  ARG155      0.1354
    187  NH2       22.6280   33.2020   25.7830 N.pl3 155  ARG155      0.1354
    188  N         33.9210   22.4460   40.3020 N.3   163  LEU163     -0.1245
    189  CA        34.1590   22.0070   41.6730 C.3   163  LEU163      0.1561
    190  C         34.7340   20.6190   41.6730 C.2   163  LEU163      0.2260
    191  O         34.6440   19.9020   40.6770 O.2   163  LEU163     -0.2867
    192  CB        32.8670   22.0100   42.4810 C.3   163  LEU163      0.0270
    193  CG        32.0890   23.3190   42.4430 C.3   163  LEU163      0.0019
    194  CD1       30.7720   23.1190   43.1650 C.3   163  LEU163      0.0001
    195  CD2       32.9050   24.4460   43.0730 C.3   163  LEU163      0.0001
    196  N         30.7510   20.4660   37.1270 N.3   172  ILE172     -0.1231
    197  CA        30.5390   21.7790   36.5160 C.3   172  ILE172      0.1692
    198  C         29.5260   22.5710   37.3200 C.2   172  ILE172      0.2592
    199  O         28.4590   22.0670   37.6390 O.2   172  ILE172     -0.2718
    200  CB        30.0670   21.6310   35.0690 C.3   172  ILE172      0.0266
    201  CG1       31.1930   21.0280   34.2250 C.3   172  ILE172      0.0019
    202  CG2       29.6530   22.9970   34.4810 C.3   172  ILE172      0.0020
    203  CD1       30.7090   20.4750   32.9220 C.3   172  ILE172      0.0001
    204  N         29.8760   23.8090   37.6420 N.am  173  CYS173     -0.1956
    205  CA        28.9350   24.6830   38.3140 C.3   173  CYS173      0.1843
    206  C         28.8960   26.0340   37.6250 C.2   173  CYS173      0.2625
    207  O         29.4790   26.2110   36.5650 O.2   173  CYS173     -0.2714
    208  CB        29.2820   24.8040   39.7930 C.3   173  CYS173      0.0997
    209  SG        30.7170   25.8190   40.1440 S.3   173  CYS173     -0.0797
    210  N         28.1830   26.9810   38.2180 N.am  174  ASP174     -0.1957
    211  CA        28.1070   28.3220   37.6650 C.3   174  ASP174      0.1840
    212  C         27.7820   29.2240   38.8310 C.2   174  ASP174      0.2622
    213  O         26.6500   29.2420   39.2970 O.2   174  ASP174     -0.2715
    214  CB        27.0210   28.3920   36.5940 C.3   174  ASP174      0.1450
    215  CG        26.9810   29.7290   35.8810 C.2   174  ASP174      0.3671
    216  OD1       28.0560   30.3210   35.6540 O.co2 174  ASP174     -0.2456
    217  OD2       25.9070   30.2520   35.5120 O.co2 174  ASP174     -0.2456
    218  N         28.7870   29.9340   39.3300 N.am  175  PHE175     -0.1974
    219  CA        28.5880   30.7490   40.5300 C.3   175  PHE175      0.1639
    220  C         27.5360   31.8300   40.3030 C.2   175  PHE175      0.2290
    221  O         26.8200   32.1900   41.2260 O.2   175  PHE175     -0.2864
    222  CB        29.9000   31.3690   41.0090 C.3   175  PHE175      0.0560
    223  CG        30.7300   30.4640   41.8860 C.ar  175  PHE175     -0.0200
    224  CD1       30.9130   30.7560   43.2360 C.ar  175  PHE175     -0.0042
    225  CD2       31.3570   29.3320   41.3640 C.ar  175  PHE175     -0.0042
    226  CE1       31.6930   29.9340   44.0470 C.ar  175  PHE175     -0.0003
    227  CE2       32.1390   28.5130   42.1700 C.ar  175  PHE175     -0.0003
    228  CZ        32.3130   28.8130   43.5130 C.ar  175  PHE175     -0.0000
@<TRIPOS>BOND
     1   166   164    1
     2   164   163    1
     3   165   163    1
     4     1     2    1
     5   187   185    1
     6   163   160    1
     7   153   154    1
     8   156   155    2
     9   185   186    1
    10   185   184    2
    11     2     3    1
    12     2     5    1
    13   155   159   am
    14   155   154    1
    15   160   159    1
    16   160   161    1
    17   148   147    2
    18   154   157    1
    19   184   183    1
    20   147   146    1
    21     3     4    2
    22     5     7    1
    23     5     6    1
    24   182   183    1
    25   182   181    1
    26   161   167   am
    27   161   162    2
    28     8     6    1
    29   157   158    1
    30   167   168    1
    31   146   145    1
    32   146   149    1
    33   178   177    1
    34   178   181    1
    35   178   179    1
    36   177   169   am
    37   149   150    1
    38   180   179    2
    39   150   152    1
    40   150   151    1
    41   168   169    1
    42   168   171    1
    43   169   170    2
    44   171   172    1
    45    76    74    1
    46   172   173   ar
    47   172   174   ar
    48   173   175   ar
    49   174   176   ar
    50   203   201    1
    51    74    75    1
    52    74    73    1
    53    60    58    1
    54   175   176   ar
    55    70    69    1
    56    70    73    1
    57    70    71    1
    58    84    82    1
    59    59    58    1
    60    72    71    2
    61   201   200    1
    62    58    55    1
    63   202   200    1
    64    82    81    1
    65    57    56    2
    66    55    56    1
    67    55    54    1
    68   200   197    1
    69    56    61   am
    70   217   215   ar
    71   216   215   ar
    72   215   214    1
    73    81    83    1
    74    81    78    1
    75   197   196    1
    76   197   198    1
    77    61    62    1
    78   207   206    2
    79   214   211    1
    80    77    78    1
    81    78    79    1
    82    64    63    2
    83    62    63    1
    84    62    65    1
    85   198   199    2
    86   198   204   am
    87    45    46    1
    88   206   210   am
    89   206   205    1
    90   204   205    1
    91    46    47    1
    92    46    49    1
    93   211   210    1
    94   211   212    1
    95    48    47    2
    96    68    66    1
    97   205   208    1
    98    79    80    2
    99    79    85   am
   100    49    50    1
   101    65    66    1
   102    66    67    1
   103   212   213    2
   104   212   218   am
   105    50    51    1
   106    85    86    1
   107   218   219    1
   108    52    51   ar
   109    88    87    2
   110    51    53   ar
   111   208   209    1
   112   188   189    1
   113   220   219    1
   114   220   221    2
   115    86    87    1
   116    86    89    1
   117   219   222    1
   118   191   190    2
   119    91    89    1
   120    89    90    1
   121   222   223    1
   122   225   223   ar
   123   225   227   ar
   124    44    43    1
   125   144   142   ar
   126   190   189    1
   127   189   192    1
   128   223   224   ar
   129   143   142   ar
   130   227   228   ar
   131   142   141    1
   132   193   192    1
   133   193   195    1
   134   193   194    1
   135   113   112   ar
   136    43    42    1
   137   139   140    2
   138   139   138    1
   139   224   226   ar
   140    42    41    1
   141   228   226   ar
   142   138   141    1
   143   138   137    1
   144   112   114   ar
   145   112   111    1
   146    97    96    1
   147   105   103    1
   148    98    96    1
   149   136   135    2
   150   132   131    1
   151    96    93    1
   152   111   110    1
   153   103   104    1
   154   103   100    1
   155    41    40    1
   156   137   135   am
   157   135   134    1
   158   131   128    1
   159    40    37    1
   160    23    21    1
   161   100    99    1
   162   100   101    1
   163   110   107    1
   164    93    94    1
   165    93    92    1
   166   106   101   am
   167   106   107    1
   168   134   133    1
   169   109   108    2
   170    94    95    2
   171   101   102    2
   172   128   127    1
   173   128   129    1
   174   107   108    1
   175    37    38    1
   176    37    36    1
   177    21    22    1
   178    21    18    1
   179   108   115   am
   180    39    38    2
   181   127   117   am
   182    12    11    2
   183    36    31   am
   184   129   130    2
   185    17    18    1
   186   117   118    2
   187   117   116    1
   188    28    25    1
   189   115   116    1
   190    18    19    1
   191    11    10    1
   192    27    26    2
   193   116   119    1
   194    31    32    2
   195    31    30    1
   196    26    25    1
   197    26    29   am
   198    13    10    1
   199    13    14    1
   200    25    24    1
   201    30    29    1
   202    30    33    1
   203    19    20    2
   204    10     9    1
   205    15    14    1
   206   119   120    1
   207    14    16    1
   208   120   122   ar
   209   120   121   ar
   210   122   124   ar
   211    34    33    1
   212    33    35    1
   213   121   123   ar
   214   124   125   ar
   215   123   125   ar
   216   125   126    1
