@<TRIPOS>MOLECULE
tmp/1t47A00.pdb
 206 195 0 0 0
SMALL
GASTEIGER

@<TRIPOS>ATOM
      1  N         54.8200   50.3960   50.3200 N.3   172  HIS172     -0.1241
      2  CA        55.6070   51.6130   50.1600 C.3   172  HIS172      0.1621
      3  C         54.7660   52.7730   49.6580 C.2   172  HIS172      0.2264
      4  O         53.6450   52.5870   49.1860 O.2   172  HIS172     -0.2867
      5  CB        56.8120   51.3840   49.2380 C.3   172  HIS172      0.0745
      6  CG        56.4480   50.9580   47.8510 C.ar  172  HIS172      0.0817
      7  ND1       56.3380   49.6310   47.4880 N.ar  172  HIS172     -0.2268
      8  CD2       56.1810   51.6750   46.7400 C.ar  172  HIS172      0.1154
      9  CE1       56.0230   49.5570   46.2080 C.ar  172  HIS172      0.1986
     10  NE2       55.9210   50.7810   45.7320 N.ar  172  HIS172     -0.2212
     11  N         55.2440   56.2820   47.3000 N.3   174  VAL174     -0.1245
     12  CA        56.1080   56.9610   46.3450 C.3   174  VAL174      0.1561
     13  C         55.8300   58.4460   46.1580 C.2   174  VAL174      0.2260
     14  O         54.6970   58.8500   45.9260 O.2   174  VAL174     -0.2867
     15  CB        56.0390   56.2640   44.9680 C.3   174  VAL174      0.0252
     16  CG1       57.0020   56.9060   43.9920 C.3   174  VAL174      0.0019
     17  CG2       56.3560   54.7900   45.1290 C.3   174  VAL174      0.0019
     18  N         67.0560   50.8060   42.4370 N.3   201  PHE201     -0.1227
     19  CA        66.9700   52.1630   41.8880 C.3   201  PHE201      0.1736
     20  C         66.7620   52.1300   40.3670 C.2   201  PHE201      0.2595
     21  O         67.0030   51.1060   39.7250 O.2   201  PHE201     -0.2718
     22  CB        68.2440   52.9730   42.2290 C.3   201  PHE201      0.0547
     23  CG        69.4740   52.5600   41.4470 C.ar  201  PHE201     -0.0202
     24  CD1       69.8050   53.2020   40.2540 C.ar  201  PHE201     -0.0042
     25  CD2       70.2940   51.5250   41.8920 C.ar  201  PHE201     -0.0042
     26  CE1       70.9310   52.8190   39.5170 C.ar  201  PHE201     -0.0003
     27  CE2       71.4240   51.1350   41.1610 C.ar  201  PHE201     -0.0003
     28  CZ        71.7400   51.7850   39.9710 C.ar  201  PHE201     -0.0000
     29  N         66.2900   53.2400   39.8020 N.am  202  VAL202     -0.1980
     30  CA        66.0780   53.3530   38.3520 C.3   202  VAL202      0.1595
     31  C         66.9230   54.5320   37.8440 C.2   202  VAL202      0.2287
     32  O         66.6230   55.6910   38.1450 O.2   202  VAL202     -0.2864
     33  CB        64.5820   53.5930   37.9970 C.3   202  VAL202      0.0276
     34  CG1       64.3850   53.5580   36.4790 C.3   202  VAL202      0.0022
     35  CG2       63.6960   52.5590   38.6780 C.3   202  VAL202      0.0022
     36  N         61.9200   58.2610   33.7480 N.3   213  LEU213     -0.1245
     37  CA        61.9600   58.6650   35.1480 C.3   213  LEU213      0.1561
     38  C         63.1750   58.0600   35.8480 C.2   213  LEU213      0.2260
     39  O         63.6640   56.9900   35.4710 O.2   213  LEU213     -0.2867
     40  CB        60.6760   58.2190   35.8820 C.3   213  LEU213      0.0270
     41  CG        60.5010   56.7540   36.3330 C.3   213  LEU213      0.0019
     42  CD1       61.0990   56.5410   37.7120 C.3   213  LEU213      0.0001
     43  CD2       59.0190   56.3920   36.3670 C.3   213  LEU213      0.0001
     44  N         64.7370   57.0590   39.7470 N.3   215  SER215     -0.1217
     45  CA        64.1930   56.7670   41.0620 C.3   215  SER215      0.1889
     46  C         65.1520   56.1430   42.0690 C.2   215  SER215      0.2288
     47  O         65.9420   55.2550   41.7330 O.2   215  SER215     -0.2866
     48  CB        62.9660   55.8640   40.8950 C.3   215  SER215      0.2089
     49  OG        62.2850   55.6700   42.1200 O.3   215  SER215     -0.2183
     50  N         65.3100   54.8320   46.4270 N.3   217  VAL217     -0.1245
     51  CA        64.4630   54.4040   47.5370 C.3   217  VAL217      0.1561
     52  C         65.1310   54.4000   48.9050 C.2   217  VAL217      0.2260
     53  O         66.1150   53.6890   49.1250 O.2   217  VAL217     -0.2867
     54  CB        63.9060   52.9710   47.3070 C.3   217  VAL217      0.0252
     55  CG1       62.8620   52.6360   48.3780 C.3   217  VAL217      0.0019
     56  CG2       63.3210   52.8260   45.8980 C.3   217  VAL217      0.0019
     57  N         60.1390   55.3910   47.9750 N.3   228  PRO228     -0.2116
     58  CA        60.8150   55.6010   46.6880 C.3   228  PRO228      0.1372
     59  C         60.5540   57.0520   46.2570 C.2   228  PRO228      0.2244
     60  O         59.4460   57.5580   46.4410 O.2   228  PRO228     -0.2868
     61  CB        60.0950   54.6170   45.7600 C.3   228  PRO228      0.0268
     62  CG        59.6380   53.5400   46.6870 C.3   228  PRO228      0.0207
     63  CD        59.1380   54.3160   47.8710 C.3   228  PRO228      0.0892
     64  N         60.6640   59.5900   42.9960 N.3   230  ASN230     -0.1240
     65  CA        60.7990   59.7010   41.5370 C.3   230  ASN230      0.1653
     66  C         61.0090   61.1260   41.0620 C.2   230  ASN230      0.2266
     67  O         60.5400   62.0800   41.6890 O.2   230  ASN230     -0.2867
     68  CB        59.5400   59.2100   40.8090 C.3   230  ASN230      0.1155
     69  CG        59.2130   57.7570   41.0660 C.2   230  ASN230      0.2627
     70  OD1       60.0570   56.9670   41.5020 O.2   230  ASN230     -0.2716
     71  ND2       57.9680   57.3870   40.7710 N.am  230  ASN230     -0.0877
     72  N         55.7310   60.4940   32.5990 N.3   240  GLN240     -0.1245
     73  CA        54.5590   60.3850   33.4490 C.3   240  GLN240      0.1566
     74  C         54.7320   61.2180   34.7080 C.2   240  GLN240      0.2260
     75  O         53.7470   61.6460   35.3020 O.2   240  GLN240     -0.2867
     76  CB        54.3090   58.9280   33.8150 C.3   240  GLN240      0.0367
     77  CG        52.9310   58.6530   34.3490 C.3   240  GLN240      0.0905
     78  CD        52.7230   57.1900   34.6530 C.2   240  GLN240      0.2608
     79  OE1       53.5020   56.5760   35.3870 O.2   240  GLN240     -0.2717
     80  NE2       51.6640   56.6170   34.0950 N.am  240  GLN240     -0.0878
     81  N         52.6870   59.9600   44.5570 N.3   254  GLN254     -0.1231
     82  CA        52.2820   59.4260   43.2610 C.3   254  GLN254      0.1698
     83  C         51.4180   58.1840   43.4570 C.2   254  GLN254      0.2592
     84  O         50.3620   58.0540   42.8400 O.2   254  GLN254     -0.2718
     85  CB        53.5140   59.0610   42.4350 C.3   254  GLN254      0.0381
     86  CG        53.1980   58.6240   41.0220 C.3   254  GLN254      0.0905
     87  CD        54.2210   57.6520   40.4820 C.2   254  GLN254      0.2608
     88  OE1       54.6700   56.7550   41.1890 O.2   254  GLN254     -0.2717
     89  NE2       54.5870   57.8150   39.2200 N.am  254  GLN254     -0.0878
     90  N         51.8900   57.2540   44.2860 N.am  255  HIS255     -0.1976
     91  CA        51.1280   56.0430   44.5590 C.3   255  HIS255      0.1656
     92  C         51.5030   55.3410   45.8590 C.2   255  HIS255      0.2291
     93  O         52.5980   55.5300   46.3980 O.2   255  HIS255     -0.2864
     94  CB        51.2070   55.0600   43.3790 C.3   255  HIS255      0.0771
     95  CG        52.4800   54.2760   43.3060 C.ar  255  HIS255      0.0820
     96  ND1       53.6140   54.7530   42.6870 N.ar  255  HIS255     -0.2267
     97  CD2       52.7830   53.0270   43.7280 C.ar  255  HIS255      0.1154
     98  CE1       54.5550   53.8280   42.7220 C.ar  255  HIS255      0.1986
     99  NE2       54.0780   52.7710   43.3510 N.ar  255  HIS255     -0.2212
    100  N         45.6820   49.1990   34.6370 N.3   278  LEU278     -0.1245
    101  CA        46.3320   49.5390   33.3740 C.3   278  LEU278      0.1561
    102  C         46.1510   48.3800   32.3990 C.2   278  LEU278      0.2260
    103  O         46.0290   47.2310   32.8180 O.2   278  LEU278     -0.2867
    104  CB        47.8200   49.8120   33.5780 C.3   278  LEU278      0.0270
    105  CG        48.2040   51.0320   34.4110 C.3   278  LEU278      0.0019
    106  CD1       49.6780   51.3330   34.1750 C.3   278  LEU278      0.0001
    107  CD2       47.3530   52.2260   34.0210 C.3   278  LEU278      0.0001
    108  N         51.3730   41.8730   36.3990 N.3   308  LEU308     -0.1245
    109  CA        52.7700   41.8760   35.9700 C.3   308  LEU308      0.1561
    110  C         53.6450   41.0780   36.9460 C.2   308  LEU308      0.2260
    111  O         53.1790   40.6510   38.0090 O.2   308  LEU308     -0.2867
    112  CB        53.2770   43.3130   35.8710 C.3   308  LEU308      0.0270
    113  CG        52.4110   44.3180   35.0990 C.3   308  LEU308      0.0019
    114  CD1       52.8750   45.7220   35.4220 C.3   308  LEU308      0.0001
    115  CD2       52.4590   44.0610   33.6000 C.3   308  LEU308      0.0001
    116  N         52.8300   42.1240   40.6020 N.3   319  GLN319     -0.1245
    117  CA        52.2640   43.4480   40.8380 C.3   319  GLN319      0.1566
    118  C         51.2860   43.8910   39.7560 C.2   319  GLN319      0.2260
    119  O         51.2210   43.3020   38.6690 O.2   319  GLN319     -0.2867
    120  CB        53.3970   44.4810   40.9270 C.3   319  GLN319      0.0367
    121  CG        54.1810   44.6430   39.6150 C.3   319  GLN319      0.0905
    122  CD        55.3000   45.6750   39.6820 C.2   319  GLN319      0.2608
    123  OE1       56.0660   45.8360   38.7270 O.2   319  GLN319     -0.2717
    124  NE2       55.4030   46.3800   40.8060 N.am  319  GLN319     -0.0878
    125  N         48.9930   47.8170   38.6190 N.3   321  PHE321     -0.1241
    126  CA        48.6740   49.2230   38.8780 C.3   321  PHE321      0.1605
    127  C         47.2650   49.5910   38.4680 C.2   321  PHE321      0.2264
    128  O         46.7920   49.1830   37.4110 O.2   321  PHE321     -0.2867
    129  CB        49.6780   50.1360   38.1650 C.3   321  PHE321      0.0534
    130  CG        51.0930   49.8790   38.5690 C.ar  321  PHE321     -0.0203
    131  CD1       51.6200   50.4790   39.7070 C.ar  321  PHE321     -0.0042
    132  CD2       51.8790   48.9710   37.8660 C.ar  321  PHE321     -0.0042
    133  CE1       52.8990   50.1700   40.1450 C.ar  321  PHE321     -0.0003
    134  CE2       53.1600   48.6530   38.2970 C.ar  321  PHE321     -0.0003
    135  CZ        53.6700   49.2520   39.4410 C.ar  321  PHE321     -0.0000
    136  N         47.4780   57.0610   41.9270 N.3   332  PHE332     -0.1241
    137  CA        46.9680   55.7380   41.5930 C.3   332  PHE332      0.1605
    138  C         47.4800   54.7740   42.6520 C.2   332  PHE332      0.2264
    139  O         48.1750   55.1800   43.5880 O.2   332  PHE332     -0.2867
    140  CB        47.3920   55.2980   40.1690 C.3   332  PHE332      0.0534
    141  CG        48.8910   55.2280   39.9430 C.ar  332  PHE332     -0.0203
    142  CD1       49.5930   54.0490   40.1980 C.ar  332  PHE332     -0.0042
    143  CD2       49.5910   56.3290   39.4480 C.ar  332  PHE332     -0.0042
    144  CE1       50.9710   53.9680   39.9720 C.ar  332  PHE332     -0.0003
    145  CE2       50.9710   56.2530   39.2130 C.ar  332  PHE332     -0.0003
    146  CZ        51.6590   55.0690   39.4770 C.ar  332  PHE332     -0.0000
    147  N         48.9290   50.5870   43.6950 N.3   334  GLU334     -0.1245
    148  CA        49.6060   49.3900   43.2440 C.3   334  GLU334      0.1567
    149  C         49.2910   48.2580   44.2100 C.2   334  GLU334      0.2260
    150  O         49.2140   48.4540   45.4250 O.2   334  GLU334     -0.2867
    151  CB        51.1110   49.6310   43.1910 C.3   334  GLU334      0.0388
    152  CG        51.9080   48.4490   42.7020 C.3   334  GLU334      0.1160
    153  CD        53.3770   48.5560   43.0400 C.2   334  GLU334      0.3649
    154  OE1       53.8180   49.6380   43.4420 O.co2 334  GLU334     -0.2457
    155  OE2       54.0980   47.5530   42.9050 O.co2 334  GLU334     -0.2457
    156  N         60.9750   46.7280   43.0610 N.3   344  PHE344     -0.1227
    157  CA        59.7650   47.5040   42.8430 C.3   344  PHE344      0.1736
    158  C         59.2140   47.3200   41.4360 C.2   344  PHE344      0.2596
    159  O         58.3060   48.0350   41.0160 O.2   344  PHE344     -0.2718
    160  CB        60.0410   48.9760   43.1410 C.3   344  PHE344      0.0547
    161  CG        60.4340   49.2290   44.5630 C.ar  344  PHE344     -0.0202
    162  CD1       61.7750   49.2120   44.9450 C.ar  344  PHE344     -0.0042
    163  CD2       59.4610   49.4250   45.5390 C.ar  344  PHE344     -0.0042
    164  CE1       62.1370   49.3760   46.2860 C.ar  344  PHE344     -0.0003
    165  CE2       59.8090   49.5960   46.8770 C.ar  344  PHE344     -0.0003
    166  CZ        61.1480   49.5720   47.2530 C.ar  344  PHE344     -0.0000
    167  N         59.7360   46.3170   40.7350 N.am  345  GLY345     -0.1942
    168  CA        59.2810   46.0270   39.3890 C.3   345  GLY345      0.2014
    169  C         59.9110   46.8600   38.2900 C.2   345  GLY345      0.2638
    170  O         59.3090   47.0430   37.2340 O.2   345  GLY345     -0.2714
    171  N         61.1310   47.3420   38.5160 N.am  346  LYS346     -0.1977
    172  CA        61.8090   48.1560   37.5150 C.3   346  LYS346      0.1596
    173  C         62.0980   47.3590   36.2440 C.2   346  LYS346      0.2287
    174  O         62.2090   47.9340   35.1630 O.2   346  LYS346     -0.2864
    175  CB        63.0840   48.8030   38.0910 C.3   346  LYS346      0.0298
    176  CG        64.3660   47.9510   38.0950 C.3   346  LYS346      0.0038
    177  CD        65.3130   48.4060   36.9860 C.3   346  LYS346      0.0206
    178  CE        66.6580   47.7090   37.0530 C.3   346  LYS346      0.1093
    179  NZ        67.5480   48.2680   38.1150 N.3   346  LYS346     -0.1314
    180  N         60.0940   45.7160   34.6270 N.3   348  ASN348     -0.1225
    181  CA        58.9460   45.8350   33.7380 C.3   348  ASN348      0.1785
    182  C         58.9580   47.0300   32.7970 C.2   348  ASN348      0.2597
    183  O         58.1280   47.1070   31.8950 O.2   348  ASN348     -0.2718
    184  CB        57.6410   45.8050   34.5270 C.3   348  ASN348      0.1169
    185  CG        57.2270   44.4090   34.9050 C.2   348  ASN348      0.2627
    186  OD1       57.2070   43.5090   34.0630 O.2   348  ASN348     -0.2716
    187  ND2       56.9040   44.2120   36.1750 N.am  348  ASN348     -0.0877
    188  N         59.8640   47.9810   33.0060 N.am  349  PHE349     -0.1976
    189  CA        59.9220   49.1240   32.0980 C.3   349  PHE349      0.1639
    190  C         60.3870   48.6590   30.7210 C.2   349  PHE349      0.2290
    191  O         59.7550   48.9730   29.7150 O.2   349  PHE349     -0.2864
    192  CB        60.8160   50.2280   32.6540 C.3   349  PHE349      0.0560
    193  CG        60.1890   50.9950   33.7850 C.ar  349  PHE349     -0.0200
    194  CD1       60.7620   50.9960   35.0520 C.ar  349  PHE349     -0.0042
    195  CD2       59.0050   51.7010   33.5870 C.ar  349  PHE349     -0.0042
    196  CE1       60.1620   51.6880   36.1080 C.ar  349  PHE349     -0.0003
    197  CE2       58.4040   52.3930   34.6290 C.ar  349  PHE349     -0.0003
    198  CZ        58.9800   52.3870   35.8920 C.ar  349  PHE349     -0.0000
    199  N         57.6190   46.0280   29.3400 N.3   352  LEU352     -0.1245
    200  CA        56.4100   46.6590   28.8080 C.3   352  LEU352      0.1561
    201  C         56.7110   47.4000   27.5050 C.2   352  LEU352      0.2260
    202  O         55.9250   47.3520   26.5620 O.2   352  LEU352     -0.2867
    203  CB        55.8180   47.6340   29.8370 C.3   352  LEU352      0.0270
    204  CG        54.5250   47.3240   30.6110 C.3   352  LEU352      0.0019
    205  CD1       53.9000   46.0130   30.1520 C.3   352  LEU352      0.0001
    206  CD2       54.8130   47.2950   32.0930 C.3   352  LEU352      0.0001
@<TRIPOS>BOND
     1   202   201    2
     2   201   200    1
     3   200   199    1
     4   200   203    1
     5   191   190    2
     6   203   204    1
     7   205   204    1
     8   204   206    1
     9   190   189    1
    10   183   182    2
    11   189   192    1
    12   189   188    1
    13   102   103    2
    14   102   101    1
    15    72    73    1
    16   192   193    1
    17   182   188   am
    18   182   181    1
    19   101   104    1
    20   101   100    1
    21    73    76    1
    22    73    74    1
    23   104   105    1
    24   195   193   ar
    25   195   197   ar
    26   115   113    1
    27   181   184    1
    28   181   180    1
    29    36    37    1
    30   193   194   ar
    31    76    77    1
    32   107   105    1
    33   186   185    2
    34    80    78   am
    35   106   105    1
    36    77    78    1
    37   184   185    1
    38   197   198   ar
    39    78    79    2
    40    74    75    2
    41   185   187   am
    42   194   196   ar
    43   113   114    1
    44   113   112    1
    45    37    38    1
    46    37    40    1
    47   174   173    2
    48    39    38    2
    49   112   109    1
    50    40    41    1
    51   198   196   ar
    52   109   108    1
    53   109   110    1
    54   173   172    1
    55    41    43    1
    56    41    42    1
    57    34    33    1
    58   110   111    2
    59   177   178    1
    60   177   176    1
    61   178   179    1
    62   170   169    2
    63   128   127    2
    64   172   175    1
    65   172   171    1
    66    31    32    2
    67    31    30    1
    68   132   134   ar
    69   132   130   ar
    70    33    30    1
    71    33    35    1
    72   175   176    1
    73   129   130    1
    74   129   126    1
    75   169   171   am
    76   169   168    1
    77   134   135   ar
    78    30    29    1
    79   127   126    1
    80   130   131   ar
    81   125   126    1
    82   119   118    2
    83   123   122    2
    84   145   143   ar
    85   145   146   ar
    86    89    87   am
    87   168   167    1
    88   135   133   ar
    89   143   141   ar
    90   146   144   ar
    91    26    28   ar
    92    26    24   ar
    93   121   122    1
    94   121   120    1
    95   122   124   am
    96   131   133   ar
    97    21    20    2
    98    44    45    1
    99   118   117    1
   100    29    20   am
   101   141   140    1
   102   141   142   ar
   103    28    27   ar
   104   144   142   ar
   105   140   137    1
   106    24    23   ar
   107    20    19    1
   108    87    86    1
   109    87    88    2
   110   116   117    1
   111   167   158   am
   112    71    69   am
   113    68    69    1
   114    68    65    1
   115   117   120    1
   116    48    45    1
   117    48    49    1
   118   159   158    2
   119    86    85    1
   120    45    46    1
   121    66    65    1
   122    66    67    2
   123    69    70    2
   124    27    25   ar
   125   158   157    1
   126    23    25   ar
   127    23    22    1
   128    65    64    1
   129   137   136    1
   130   137   138    1
   131    47    46    2
   132    19    22    1
   133    19    18    1
   134    85    82    1
   135   138   139    2
   136    96    98   ar
   137    96    95   ar
   138   152   153    1
   139   152   151    1
   140    98    99   ar
   141    84    83    2
   142   157   156    1
   143   157   160    1
   144   155   153   ar
   145   153   154   ar
   146   160   161    1
   147   151   148    1
   148   148   147    1
   149   148   149    1
   150    82    83    1
   151    82    81    1
   152    95    94    1
   153    95    97   ar
   154    99    97   ar
   155    94    91    1
   156    83    90   am
   157    16    15    1
   158   149   150    2
   159    90    91    1
   160    91    92    1
   161   161   162   ar
   162   161   163   ar
   163   162   164   ar
   164    15    17    1
   165    15    12    1
   166   163   165   ar
   167    10     9   ar
   168    10     8   ar
   169    61    62    1
   170    61    58    1
   171    92    93    2
   172    56    54    1
   173    14    13    2
   174    13    12    1
   175     9     7   ar
   176    59    60    2
   177    59    58    1
   178   164   166   ar
   179    12    11    1
   180    50    51    1
   181    62    63    1
   182    58    57    1
   183     8     6   ar
   184   165   166   ar
   185    54    51    1
   186    54    55    1
   187     7     6   ar
   188    51    52    1
   189     6     5    1
   190    63    57    1
   191    52    53    2
   192     4     3    2
   193     5     2    1
   194     3     2    1
   195     2     1    1
