@<TRIPOS>MOLECULE
tmp/1t48A00.pdb
 127 125 0 0 0
SMALL
GASTEIGER

@<TRIPOS>ATOM
      1  N         57.5160   30.3550   10.6630 N.3   187  SER187     -0.1203
      2  CA        57.8140   30.2150   12.0840 C.3   187  SER187      0.2005
      3  C         56.6450   29.5250   12.8240 C.2   187  SER187      0.2461
      4  O         55.4930   29.7100   12.4430 O.2   187  SER187     -0.2732
      5  CB        58.1110   31.5760   12.7130 C.3   187  SER187      0.2103
      6  OG        56.9400   32.1330   13.2630 O.3   187  SER187     -0.2182
      7  N         56.9530   28.7600   13.8790 N.am  188  PRO188     -0.2717
      8  CA        55.9490   28.0600   14.6880 C.3   188  PRO188      0.1535
      9  C         55.2010   28.9700   15.6440 C.2   188  PRO188      0.2598
     10  O         54.2160   28.5290   16.2340 O.2   188  PRO188     -0.2715
     11  CB        56.7860   27.1340   15.5500 C.3   188  PRO188      0.0310
     12  CG        58.1510   27.1320   14.9380 C.3   188  PRO188      0.0237
     13  CD        58.3190   28.4980   14.3610 C.3   188  PRO188      0.0939
     14  N         55.7190   30.1760   15.8350 N.am  189  ALA189     -0.1978
     15  CA        55.1530   31.1600   16.7450 C.3   189  ALA189      0.1597
     16  C         53.6350   31.1250   16.8040 C.2   189  ALA189      0.2287
     17  O         53.0540   31.0920   17.8820 O.2   189  ALA189     -0.2864
     18  CB        55.6500   32.5310   16.3680 C.3   189  ALA189      0.0319
     19  N         52.2280   27.5170   17.8160 N.3   192  LEU192     -0.1231
     20  CA        52.5110   27.3160   19.2390 C.3   192  LEU192      0.1693
     21  C         51.5590   28.1350   20.0530 C.2   192  LEU192      0.2592
     22  O         51.0040   27.6610   21.0310 O.2   192  LEU192     -0.2718
     23  CB        53.9560   27.7050   19.5830 C.3   192  LEU192      0.0284
     24  CG        54.9330   26.6360   19.0940 C.3   192  LEU192      0.0019
     25  CD1       56.3500   27.1400   19.0530 C.3   192  LEU192      0.0001
     26  CD2       54.8280   25.3350   19.9360 C.3   192  LEU192      0.0001
     27  N         51.3290   29.3680   19.6280 N.am  193  ASN193     -0.1974
     28  CA        50.3530   30.1780   20.3240 C.3   193  ASN193      0.1688
     29  C         48.9830   29.4970   20.2960 C.2   193  ASN193      0.2292
     30  O         48.3040   29.3770   21.3180 O.2   193  ASN193     -0.2864
     31  CB        50.3050   31.5750   19.7150 C.3   193  ASN193      0.1181
     32  CG        49.3810   32.5040   20.4630 C.2   193  ASN193      0.2629
     33  OD1       48.2730   32.8190   20.0030 O.2   193  ASN193     -0.2716
     34  ND2       49.8420   32.9900   21.6070 N.am  193  ASN193     -0.0877
     35  N         48.7890   26.5160   22.6310 N.3   196  PHE196     -0.1227
     36  CA        48.6180   26.9240   24.0140 C.3   196  PHE196      0.1736
     37  C         47.2690   27.5750   24.3050 C.2   196  PHE196      0.2595
     38  O         46.7660   27.5290   25.4370 O.2   196  PHE196     -0.2718
     39  CB        49.8330   27.6980   24.5210 C.3   196  PHE196      0.0547
     40  CG        50.9820   26.7930   24.9130 C.ar  196  PHE196     -0.0202
     41  CD1       51.5600   25.9310   23.9780 C.ar  196  PHE196     -0.0042
     42  CD2       51.4480   26.7570   26.2250 C.ar  196  PHE196     -0.0042
     43  CE1       52.5960   25.0840   24.3350 C.ar  196  PHE196     -0.0003
     44  CE2       52.4940   25.9020   26.5890 C.ar  196  PHE196     -0.0003
     45  CZ        53.0650   25.0690   25.6400 C.ar  196  PHE196     -0.0000
     46  N         46.6380   28.1020   23.2720 N.am  197  LYS197     -0.1980
     47  CA        45.2890   28.6180   23.4370 C.3   197  LYS197      0.1596
     48  C         44.3470   27.4510   23.6320 C.2   197  LYS197      0.2287
     49  O         43.3980   27.5410   24.3940 O.2   197  LYS197     -0.2864
     50  CB        44.8560   29.4600   22.2350 C.3   197  LYS197      0.0298
     51  CG        45.3520   30.9160   22.2970 C.3   197  LYS197      0.0038
     52  CD        44.7980   31.6350   23.5220 C.3   197  LYS197      0.0206
     53  CE        45.0690   33.1440   23.5040 C.3   197  LYS197      0.1093
     54  NZ        44.3460   33.8690   24.6250 N.3   197  LYS197     -0.1314
     55  N         44.8570   26.2300   27.2050 N.3   200  GLU200     -0.1245
     56  CA        44.2110   27.1450   28.1260 C.3   200  GLU200      0.1567
     57  C         42.7460   26.8370   28.3290 C.2   200  GLU200      0.2260
     58  O         42.2430   27.0060   29.4280 O.2   200  GLU200     -0.2867
     59  CB        44.2750   28.5690   27.5940 C.3   200  GLU200      0.0388
     60  CG        45.3720   29.4200   28.1750 C.3   200  GLU200      0.1160
     61  CD        45.1810   30.8740   27.8130 C.2   200  GLU200      0.3649
     62  OE1       44.0750   31.2370   27.3120 O.co2 200  GLU200     -0.2457
     63  OE2       46.1380   31.6430   28.0380 O.co2 200  GLU200     -0.2457
     64  N         61.4610   25.5680   19.5780 N.3   276  GLU276     -0.1231
     65  CA        61.1250   26.9410   19.8690 C.3   276  GLU276      0.1699
     66  C         60.1450   26.9990   21.0290 C.2   276  GLU276      0.2592
     67  O         60.1250   27.9680   21.7850 O.2   276  GLU276     -0.2718
     68  CB        60.5450   27.6070   18.6310 C.3   276  GLU276      0.0402
     69  CG        61.5350   27.6870   17.4710 C.3   276  GLU276      0.1161
     70  CD        62.6020   28.7690   17.6480 C.2   276  GLU276      0.3649
     71  OE1       62.7550   29.3020   18.7660 O.co2 276  GLU276     -0.2457
     72  OE2       63.2930   29.0960   16.6610 O.co2 276  GLU276     -0.2457
     73  N         59.3470   25.9490   21.1790 N.am  277  GLY277     -0.1957
     74  CA        58.3610   25.8970   22.2430 C.3   277  GLY277      0.1869
     75  C         59.0630   25.7290   23.5740 C.2   277  GLY277      0.2309
     76  O         58.7280   26.3630   24.5500 O.2   277  GLY277     -0.2863
     77  N         62.0970   26.6200   24.1720 N.3   279  LYS279     -0.1231
     78  CA        62.8650   27.8430   24.3970 C.3   279  LYS279      0.1693
     79  C         61.9930   28.9620   24.9300 C.2   279  LYS279      0.2592
     80  O         62.4600   29.8150   25.6790 O.2   279  LYS279     -0.2718
     81  CB        63.5870   28.2870   23.1230 C.3   279  LYS279      0.0285
     82  CG        64.6910   27.3390   22.6970 C.3   279  LYS279      0.0035
     83  CD        65.7320   28.0190   21.7980 C.3   279  LYS279      0.0206
     84  CE        65.3300   28.0360   20.3300 C.3   279  LYS279      0.1093
     85  NZ        66.3720   28.6700   19.4480 N.3   279  LYS279     -0.1314
     86  N         60.7240   28.9620   24.5430 N.am  280  PHE280     -0.1962
     87  CA        59.8090   29.9620   25.0570 C.3   280  PHE280      0.1771
     88  C         59.5420   29.6770   26.5240 C.2   280  PHE280      0.2619
     89  O         59.5520   30.5790   27.3550 O.2   280  PHE280     -0.2715
     90  CB        58.4930   29.9380   24.2980 C.3   280  PHE280      0.0574
     91  CG        57.5800   31.0740   24.6520 C.ar  280  PHE280     -0.0200
     92  CD1       57.5200   32.2000   23.8460 C.ar  280  PHE280     -0.0042
     93  CD2       56.7990   31.0260   25.8030 C.ar  280  PHE280     -0.0042
     94  CE1       56.6900   33.2540   24.1640 C.ar  280  PHE280     -0.0003
     95  CE2       55.9680   32.0750   26.1330 C.ar  280  PHE280     -0.0003
     96  CZ        55.9120   33.1940   25.3140 C.ar  280  PHE280     -0.0000
     97  N         59.2950   28.4070   26.8250 N.am  281  ILE281     -0.1977
     98  CA        59.0000   27.9580   28.1760 C.3   281  ILE281      0.1596
     99  C         60.1480   28.2450   29.1560 C.2   281  ILE281      0.2287
    100  O         59.9320   28.3800   30.3740 O.2   281  ILE281     -0.2864
    101  CB        58.6470   26.4620   28.1400 C.3   281  ILE281      0.0276
    102  CG1       57.1560   26.2980   27.8190 C.3   281  ILE281      0.0022
    103  CG2       59.0130   25.7760   29.4500 C.3   281  ILE281      0.0022
    104  CD1       56.6830   24.8600   27.7780 C.3   281  ILE281      0.0001
    105  N         53.5780   37.3450   23.3840 N.3   285  TRP285     -0.1227
    106  CA        52.4770   36.4750   23.0020 C.3   285  TRP285      0.1737
    107  C         51.6770   36.1530   24.2580 C.2   285  TRP285      0.2595
    108  O         50.6310   35.5000   24.1990 O.2   285  TRP285     -0.2718
    109  CB        53.0120   35.1930   22.3610 C.3   285  TRP285      0.0564
    110  CG        53.8400   35.4270   21.1150 C.ar  285  TRP285      0.0003
    111  CD1       55.1310   35.8840   21.0550 C.ar  285  TRP285      0.0946
    112  CD2       53.4340   35.2020   19.7600 C.ar  285  TRP285      0.0152
    113  NE1       55.5460   35.9590   19.7450 N.ar  285  TRP285     -0.2442
    114  CE2       54.5220   35.5470   18.9290 C.ar  285  TRP285      0.0810
    115  CE3       52.2550   34.7430   19.1590 C.ar  285  TRP285      0.0012
    116  CZ2       54.4630   35.4430   17.5340 C.ar  285  TRP285      0.0191
    117  CZ3       52.1940   34.6510   17.7750 C.ar  285  TRP285      0.0001
    118  CH2       53.2900   34.9980   16.9810 C.ar  285  TRP285      0.0015
    119  N         52.1710   36.6520   25.3910 N.am  286  LYS286     -0.1980
    120  CA        51.5630   36.3900   26.6900 C.3   286  LYS286      0.1596
    121  C         52.0520   37.3150   27.8170 C.2   286  LYS286      0.2287
    122  O         53.1590   37.8610   27.7660 O.2   286  LYS286     -0.2864
    123  CB        51.8030   34.9300   27.0750 C.3   286  LYS286      0.0298
    124  CG        52.2070   34.7370   28.5200 C.3   286  LYS286      0.0038
    125  CD        52.8120   33.3700   28.7550 C.3   286  LYS286      0.0206
    126  CE        53.3820   33.2860   30.1650 C.3   286  LYS286      0.1093
    127  NZ        53.7550   31.9000   30.5720 N.3   286  LYS286     -0.1314
@<TRIPOS>BOND
     1     1     2    1
     2     2     5    1
     3     2     3    1
     4     4     3    2
     5     5     6    1
     6     3     7   am
     7     7    13    1
     8     7     8    1
     9    13    12    1
    10     8    11    1
    11     8     9    1
    12    12    11    1
    13     9    14   am
    14     9    10    2
    15    14    15    1
    16    18    15    1
    17    72    70   ar
    18    15    16    1
    19    16    17    2
    20   118   116   ar
    21   118   117   ar
    22    69    70    1
    23    69    68    1
    24   116   114   ar
    25    70    71   ar
    26   117   115   ar
    27    19    20    1
    28    68    65    1
    29   114   113   ar
    30   114   112   ar
    31    25    24    1
    32    24    23    1
    33    24    26    1
    34   115   112   ar
    35    20    23    1
    36    20    21    1
    37    85    84    1
    38    64    65    1
    39    27    21   am
    40    27    28    1
    41    31    28    1
    42    31    32    1
    43   113   111   ar
    44   112   110   ar
    45    65    66    1
    46    33    32    2
    47    21    22    2
    48    29    28    1
    49    29    30    2
    50    84    83    1
    51    32    34   am
    52    66    73   am
    53    66    67    2
    54   111   110   ar
    55   110   109    1
    56    73    74    1
    57    83    82    1
    58    50    51    1
    59    50    47    1
    60    74    75    1
    61    51    52    1
    62   109   106    1
    63    35    36    1
    64    82    81    1
    65   106   105    1
    66   106   107    1
    67    81    78    1
    68    46    47    1
    69    46    37   am
    70    47    48    1
    71    53    52    1
    72    53    54    1
    73    75    76    2
    74    48    49    2
    75    92    94   ar
    76    92    91   ar
    77    41    43   ar
    78    41    40   ar
    79    36    37    1
    80    36    39    1
    81    94    96   ar
    82    77    78    1
    83   108   107    2
    84   107   119   am
    85    90    91    1
    86    90    87    1
    87    37    38    2
    88    43    45   ar
    89    78    79    1
    90    39    40    1
    91    86    79   am
    92    86    87    1
    93    91    93   ar
    94    40    42   ar
    95    79    80    2
    96    87    88    1
    97    96    95   ar
    98   119   120    1
    99    45    44   ar
   100    93    95   ar
   101    42    44   ar
   102    88    97   am
   103    88    89    2
   104   120   123    1
   105   120   121    1
   106    97    98    1
   107   123   124    1
   108    55    56    1
   109    62    61   ar
   110    59    56    1
   111    59    60    1
   112   122   121    2
   113   104   102    1
   114    61    63   ar
   115    61    60    1
   116   102   101    1
   117    56    57    1
   118   101    98    1
   119   101   103    1
   120    98    99    1
   121    57    58    2
   122   124   125    1
   123   125   126    1
   124    99   100    2
   125   126   127    1
