@<TRIPOS>MOLECULE
tmp/1t49A00.pdb
 112 109 0 0 0
SMALL
GASTEIGER

@<TRIPOS>ATOM
      1  N         57.2290   29.9760   10.0330 N.3   187  SER187     -0.1203
      2  CA        57.5230   30.0070   11.4640 C.3   187  SER187      0.2005
      3  C         56.4280   29.2340   12.2040 C.2   187  SER187      0.2461
      4  O         55.2570   29.3110   11.8290 O.2   187  SER187     -0.2732
      5  CB        57.5470   31.4500   11.9670 C.3   187  SER187      0.2103
      6  OG        57.3510   31.5140   13.3760 O.3   187  SER187     -0.2182
      7  N         56.8090   28.5030   13.2480 N.am  188  PRO188     -0.2717
      8  CA        55.8480   27.7220   14.0390 C.3   188  PRO188      0.1535
      9  C         55.1170   28.6090   15.0260 C.2   188  PRO188      0.2598
     10  O         54.2380   28.1390   15.7490 O.2   188  PRO188     -0.2715
     11  CB        56.7320   26.7360   14.8170 C.3   188  PRO188      0.0310
     12  CG        58.1490   27.2620   14.7380 C.3   188  PRO188      0.0237
     13  CD        58.1940   28.3810   13.7370 C.3   188  PRO188      0.0939
     14  N         55.4910   29.8860   15.0540 N.am  189  ALA189     -0.1978
     15  CA        54.9370   30.8350   16.0050 C.3   189  ALA189      0.1597
     16  C         53.4230   30.7650   16.1440 C.2   189  ALA189      0.2287
     17  O         52.9030   30.6270   17.2450 O.2   189  ALA189     -0.2864
     18  CB        55.3620   32.2640   15.6480 C.3   189  ALA189      0.0319
     19  N         51.9600   27.2140   17.3370 N.3   192  LEU192     -0.1231
     20  CA        52.2090   26.9840   18.7750 C.3   192  LEU192      0.1693
     21  C         51.2650   27.8240   19.6120 C.2   192  LEU192      0.2592
     22  O         50.7070   27.3510   20.5960 O.2   192  LEU192     -0.2718
     23  CB        53.6480   27.3350   19.1470 C.3   192  LEU192      0.0284
     24  CG        54.7050   26.3430   18.6580 C.3   192  LEU192      0.0019
     25  CD1       56.0870   26.9290   18.8350 C.3   192  LEU192      0.0001
     26  CD2       54.5760   25.0080   19.3880 C.3   192  LEU192      0.0001
     27  N         51.0990   29.0820   19.2190 N.am  193  ASN193     -0.1974
     28  CA        50.1600   29.9680   19.8870 C.3   193  ASN193      0.1688
     29  C         48.7900   29.3110   19.8890 C.2   193  ASN193      0.2292
     30  O         48.1260   29.2290   20.9160 O.2   193  ASN193     -0.2864
     31  CB        50.0990   31.3160   19.1610 C.3   193  ASN193      0.1181
     32  CG        49.1690   32.3090   19.8400 C.2   193  ASN193      0.2629
     33  OD1       48.0630   32.5810   19.3560 O.2   193  ASN193     -0.2716
     34  ND2       49.6190   32.8680   20.9600 N.am  193  ASN193     -0.0877
     35  N         48.5610   26.3170   22.2200 N.3   196  PHE196     -0.1227
     36  CA        48.4470   26.7390   23.6130 C.3   196  PHE196      0.1736
     37  C         47.1070   27.4060   23.9090 C.2   196  PHE196      0.2595
     38  O         46.6400   27.3900   25.0440 O.2   196  PHE196     -0.2718
     39  CB        49.6840   27.5350   24.0530 C.3   196  PHE196      0.0547
     40  CG        50.7950   26.6450   24.5470 C.ar  196  PHE196     -0.0202
     41  CD1       51.4630   25.8070   23.6740 C.ar  196  PHE196     -0.0042
     42  CD2       51.1140   26.5900   25.9000 C.ar  196  PHE196     -0.0042
     43  CE1       52.4620   24.9510   24.1340 C.ar  196  PHE196     -0.0003
     44  CE2       52.1060   25.7380   26.3670 C.ar  196  PHE196     -0.0003
     45  CZ        52.7770   24.9170   25.4850 C.ar  196  PHE196     -0.0000
     46  N         46.4610   27.9420   22.8760 N.am  197  LYS197     -0.1980
     47  CA        45.1040   28.4520   23.0300 C.3   197  LYS197      0.1596
     48  C         44.1620   27.2770   23.2620 C.2   197  LYS197      0.2287
     49  O         43.2460   27.3520   24.0850 O.2   197  LYS197     -0.2864
     50  CB        44.6670   29.2470   21.7970 C.3   197  LYS197      0.0298
     51  CG        45.3490   30.6000   21.6730 C.3   197  LYS197      0.0038
     52  CD        44.8870   31.5460   22.7650 C.3   197  LYS197      0.0206
     53  CE        45.3410   32.9810   22.4930 C.3   197  LYS197      0.1093
     54  NZ        46.5520   33.3900   23.2610 N.3   197  LYS197     -0.1314
     55  N         44.8190   26.0370   26.8990 N.3   200  GLU200     -0.1245
     56  CA        44.1970   26.9910   27.8140 C.3   200  GLU200      0.1567
     57  C         42.7360   26.7180   28.0950 C.2   200  GLU200      0.2260
     58  O         42.2630   26.9410   29.2020 O.2   200  GLU200     -0.2867
     59  CB        44.2110   28.3760   27.1770 C.3   200  GLU200      0.0388
     60  CG        45.3240   29.2960   27.5930 C.3   200  GLU200      0.1160
     61  CD        45.0390   30.7170   27.1560 C.2   200  GLU200      0.3649
     62  OE1       44.0120   30.9450   26.4640 O.co2 200  GLU200     -0.2457
     63  OE2       45.8370   31.6010   27.5090 O.co2 200  GLU200     -0.2457
     64  N         61.0760   25.3780   19.1640 N.3   276  GLU276     -0.1231
     65  CA        60.6630   26.7310   19.4980 C.3   276  GLU276      0.1699
     66  C         59.7100   26.7730   20.6910 C.2   276  GLU276      0.2592
     67  O         59.7510   27.7100   21.4910 O.2   276  GLU276     -0.2718
     68  CB        60.0270   27.4250   18.2900 C.3   276  GLU276      0.0402
     69  CG        61.0420   27.8490   17.2440 C.3   276  GLU276      0.1161
     70  CD        62.0600   28.8360   17.7930 C.2   276  GLU276      0.3649
     71  OE1       61.6970   29.6630   18.6670 O.co2 276  GLU276     -0.2457
     72  OE2       63.2200   28.7920   17.3440 O.co2 276  GLU276     -0.2457
     73  N         58.8500   25.7630   20.8040 N.am  277  GLY277     -0.1957
     74  CA        57.9340   25.6900   21.9300 C.3   277  GLY277      0.1869
     75  C         58.7220   25.5560   23.2190 C.2   277  GLY277      0.2309
     76  O         58.4200   26.2050   24.2180 O.2   277  GLY277     -0.2863
     77  N         61.8640   26.4760   23.6320 N.3   279  LYS279     -0.1231
     78  CA        62.6280   27.7100   23.8150 C.3   279  LYS279      0.1693
     79  C         61.7820   28.8290   24.4040 C.2   279  LYS279      0.2592
     80  O         62.2960   29.6840   25.1150 O.2   279  LYS279     -0.2718
     81  CB        63.3050   28.1610   22.5120 C.3   279  LYS279      0.0285
     82  CG        64.5330   27.3310   22.1560 C.3   279  LYS279      0.0035
     83  CD        65.4510   28.0320   21.1670 C.3   279  LYS279      0.0206
     84  CE        65.0310   27.8020   19.7270 C.3   279  LYS279      0.1093
     85  NZ        66.1120   28.1920   18.7620 N.3   279  LYS279     -0.1314
     86  N         60.4870   28.8190   24.1100 N.am  280  PHE280     -0.1962
     87  CA        59.5850   29.8320   24.6450 C.3   280  PHE280      0.1771
     88  C         59.2970   29.5890   26.1200 C.2   280  PHE280      0.2619
     89  O         59.0230   30.5260   26.8700 O.2   280  PHE280     -0.2715
     90  CB        58.2560   29.8240   23.8790 C.3   280  PHE280      0.0574
     91  CG        57.3170   30.9310   24.2830 C.ar  280  PHE280     -0.0200
     92  CD1       57.2240   32.0860   23.5240 C.ar  280  PHE280     -0.0042
     93  CD2       56.5300   30.8180   25.4190 C.ar  280  PHE280     -0.0042
     94  CE1       56.3700   33.1110   23.8900 C.ar  280  PHE280     -0.0003
     95  CE2       55.6760   31.8420   25.7930 C.ar  280  PHE280     -0.0003
     96  CZ        55.5950   32.9870   25.0260 C.ar  280  PHE280     -0.0000
     97  N         59.4050   28.3310   26.5300 N.am  281  ILE281     -0.1963
     98  CA        58.9450   27.8770   27.8480 C.3   281  ILE281      0.1727
     99  C         59.6750   28.1630   29.1820 C.2   281  ILE281      0.2616
    100  O         58.9970   28.2720   30.2020 O.2   281  ILE281     -0.2715
    101  CB        58.5540   26.3750   27.7600 C.3   281  ILE281      0.0290
    102  CG1       57.0870   26.2530   27.3410 C.3   281  ILE281      0.0022
    103  CG2       58.7980   25.6590   29.0830 C.3   281  ILE281      0.0023
    104  CD1       56.6300   24.8330   27.0540 C.3   281  ILE281      0.0001
    105  N         60.9980   28.3210   29.2280 N.am  282  MET282     -0.1977
    106  CA        61.9090   28.3120   28.1000 C.3   282  MET282      0.1605
    107  C         62.9510   27.2110   28.2840 C.2   282  MET282      0.2287
    108  O         64.1040   27.3540   27.8740 O.2   282  MET282     -0.2864
    109  CB        62.6040   29.6710   28.0340 C.3   282  MET282      0.0413
    110  CG        61.6250   30.8320   28.1050 C.3   282  MET282      0.0598
    111  SD        62.2090   32.2870   28.9780 S.3   282  MET282     -0.1393
    112  CE        63.2820   33.0260   27.7530 C.3   282  MET282      0.0692
@<TRIPOS>BOND
     1     1     2    1
     2     2     5    1
     3     2     3    1
     4     4     3    2
     5     5     6    1
     6     3     7   am
     7     7    13    1
     8     7     8    1
     9    13    12    1
    10     8    11    1
    11     8     9    1
    12    12    11    1
    13     9    14   am
    14     9    10    2
    15    14    15    1
    16    18    15    1
    17    15    16    1
    18    16    17    2
    19    69    70    1
    20    69    68    1
    21    19    20    1
    22    72    70   ar
    23    70    71   ar
    24    68    65    1
    25    24    25    1
    26    24    23    1
    27    24    26    1
    28    85    84    1
    29    20    23    1
    30    20    21    1
    31    31    32    1
    32    31    28    1
    33    64    65    1
    34    27    21   am
    35    27    28    1
    36    33    32    2
    37    65    66    1
    38    21    22    2
    39    84    83    1
    40    32    34   am
    41    28    29    1
    42    29    30    2
    43    66    73   am
    44    66    67    2
    45    73    74    1
    46    83    82    1
    47    51    50    1
    48    51    52    1
    49    50    47    1
    50    74    75    1
    51    82    81    1
    52    35    36    1
    53    53    52    1
    54    53    54    1
    55    81    78    1
    56    46    47    1
    57    46    37   am
    58    47    48    1
    59    75    76    2
    60    48    49    2
    61    92    94   ar
    62    92    91   ar
    63    36    37    1
    64    36    39    1
    65    77    78    1
    66    41    43   ar
    67    41    40   ar
    68    78    79    1
    69    90    91    1
    70    90    87    1
    71    94    96   ar
    72    37    38    2
    73    39    40    1
    74    86    79   am
    75    86    87    1
    76    43    45   ar
    77    91    93   ar
    78    79    80    2
    79    40    42   ar
    80    87    88    1
    81    96    95   ar
    82    93    95   ar
    83    45    44   ar
    84    42    44   ar
    85    88    97   am
    86    88    89    2
    87    62    61   ar
    88    97    98    1
    89    55    56    1
    90   104   102    1
    91    61    63   ar
    92    61    60    1
    93    59    60    1
    94    59    56    1
    95   102   101    1
    96   112   111    1
    97   101    98    1
    98   101   103    1
    99    56    57    1
   100    98    99    1
   101   108   107    2
   102   109   106    1
   103   109   110    1
   104    57    58    2
   105   106   107    1
   106   106   105    1
   107   110   111    1
   108    99   105   am
   109    99   100    2
