@<TRIPOS>MOLECULE
tmp/1t4eA00.pdb
 161 154 0 0 0
SMALL
GASTEIGER

@<TRIPOS>ATOM
      1  N         44.6980   17.0560   23.7260 N.3     1  GLY1       -0.1210
      2  CA        46.0420   16.9040   23.0830 C.3     1  GLY1        0.1956
      3  C         47.2350   17.2930   23.9530 C.2     1  GLY1        0.2612
      4  O         48.2840   16.6460   23.9070 O.2     1  GLY1       -0.2717
      5  N         47.0830   18.3520   24.7440 N.am    2  SER2       -0.1952
      6  CA        48.1540   18.8310   25.6180 C.3     2  SER2        0.1924
      7  C         49.4560   19.1180   24.8640 C.2     2  SER2        0.2314
      8  O         49.6990   20.2650   24.4760 O.2     2  SER2       -0.2863
      9  CB        48.4070   17.8310   26.7430 C.3     2  SER2        0.2116
     10  OG        47.2470   17.6580   27.5400 O.3     2  SER2       -0.2180
     11  N         39.3620   13.1290   22.1580 N.3    39  LEU39      -0.1231
     12  CA        40.1090   12.8710   23.3650 C.3    39  LEU39       0.1693
     13  C         39.2600   13.1590   24.5810 C.2    39  LEU39       0.2592
     14  O         39.2800   12.3980   25.5410 O.2    39  LEU39      -0.2718
     15  CB        41.3650   13.7260   23.4050 C.3    39  LEU39       0.0284
     16  CG        42.5200   13.1310   22.6090 C.3    39  LEU39       0.0019
     17  CD1       43.5630   14.1920   22.4180 C.3    39  LEU39       0.0001
     18  CD2       43.0950   11.9220   23.3440 C.3    39  LEU39       0.0001
     19  N         38.5080   14.2560   24.5450 N.am   40  PHE40      -0.1976
     20  CA        37.6530   14.6120   25.6750 C.3    40  PHE40       0.1639
     21  C         36.6540   13.5030   25.9980 C.2    40  PHE40       0.2290
     22  O         36.5370   13.0730   27.1490 O.2    40  PHE40      -0.2864
     23  CB        36.8740   15.9010   25.3910 C.3    40  PHE40       0.0560
     24  CG        35.9840   16.3300   26.5300 C.ar   40  PHE40      -0.0200
     25  CD1       36.4780   17.1350   27.5510 C.ar   40  PHE40      -0.0042
     26  CD2       34.6740   15.8700   26.6140 C.ar   40  PHE40      -0.0042
     27  CE1       35.6790   17.4730   28.6430 C.ar   40  PHE40      -0.0003
     28  CE2       33.8690   16.1980   27.6960 C.ar   40  PHE40      -0.0003
     29  CZ        34.3730   17.0010   28.7140 C.ar   40  PHE40      -0.0000
     30  N         36.7170   10.4110   24.9310 N.3    42  LEU42      -0.1231
     31  CA        37.4490    9.1940   25.2170 C.3    42  LEU42       0.1693
     32  C         37.9150    9.3320   26.6750 C.2    42  LEU42       0.2593
     33  O         38.0740    8.3500   27.3980 O.2    42  LEU42      -0.2718
     34  CB        38.6210    9.0810   24.2450 C.3    42  LEU42       0.0284
     35  CG        38.9030    7.7060   23.6440 C.3    42  LEU42       0.0019
     36  CD1       37.6370    7.0370   23.1660 C.3    42  LEU42       0.0001
     37  CD2       39.8600    7.8850   22.4990 C.3    42  LEU42       0.0001
     38  N         38.0990   10.5760   27.1030 N.am   43  GLY43      -0.1942
     39  CA        38.5150   10.8320   28.4640 C.3    43  GLY43       0.2014
     40  C         37.4060   10.5110   29.4380 C.2    43  GLY43       0.2638
     41  O         37.6560    9.9090   30.4820 O.2    43  GLY43      -0.2714
     42  N         36.1790   10.9060   29.1140 N.am   44  GLN44      -0.1977
     43  CA        35.0710   10.6170   30.0100 C.3    44  GLN44       0.1601
     44  C         34.9660    9.1150   30.1090 C.2    44  GLN44       0.2287
     45  O         34.9030    8.5520   31.1990 O.2    44  GLN44      -0.2864
     46  CB        33.7610   11.1990   29.4810 C.3    44  GLN44       0.0394
     47  CG        33.7130   12.7200   29.5000 C.3    44  GLN44       0.0908
     48  CD        34.0640   13.2810   30.8590 C.2    44  GLN44       0.2608
     49  OE1       33.4350   12.9390   31.8560 O.2    44  GLN44      -0.2717
     50  NE2       35.0780   14.1450   30.9090 N.am   44  GLN44      -0.0878
     51  N         37.1300    6.5640   29.7010 N.3    46  ILE46      -0.1231
     52  CA        38.1160    5.9490   30.5740 C.3    46  ILE46       0.1692
     53  C         37.7170    6.1750   32.0200 C.2    46  ILE46       0.2591
     54  O         37.7310    5.2610   32.8370 O.2    46  ILE46      -0.2718
     55  CB        39.5080    6.5560   30.3460 C.3    46  ILE46       0.0266
     56  CG1       40.0500    6.0960   28.9930 C.3    46  ILE46       0.0019
     57  CG2       40.4490    6.1690   31.4810 C.3    46  ILE46       0.0020
     58  CD1       41.3430    6.7740   28.6020 C.3    46  ILE46       0.0001
     59  N         37.3420    7.4140   32.3090 N.am   47  MET47      -0.1979
     60  CA        36.9510    7.8270   33.6450 C.3    47  MET47       0.1605
     61  C         35.7090    7.1200   34.1800 C.2    47  MET47       0.2287
     62  O         35.6890    6.6910   35.3360 O.2    47  MET47      -0.2864
     63  CB        36.7350    9.3380   33.6610 C.3    47  MET47       0.0413
     64  CG        37.1530    9.9710   34.9480 C.3    47  MET47       0.0598
     65  SD        38.8430    9.5270   35.3010 S.3    47  MET47      -0.1393
     66  CE        39.6440   11.1120   35.1680 C.3    47  MET47       0.0692
     67  N         41.3750    2.9800   34.5140 N.3    52  TYR52      -0.1241
     68  CA        42.6770    3.3650   35.0550 C.3    52  TYR52       0.1605
     69  C         43.0370    2.5340   36.2700 C.2    52  TYR52       0.2264
     70  O         42.1670    1.9680   36.9290 O.2    52  TYR52      -0.2867
     71  CB        42.6880    4.8460   35.4380 C.3    52  TYR52       0.0534
     72  CG        41.6420    5.2260   36.4630 C.ar   52  TYR52      -0.0201
     73  CD1       41.8090    4.9220   37.8100 C.ar   52  TYR52      -0.0009
     74  CD2       40.4680    5.8750   36.0770 C.ar   52  TYR52      -0.0009
     75  CE1       40.8330    5.2540   38.7450 C.ar   52  TYR52       0.0417
     76  CE2       39.4880    6.2110   37.0040 C.ar   52  TYR52       0.0417
     77  CZ        39.6750    5.8980   38.3340 C.ar   52  TYR52       0.1957
     78  OH        38.7030    6.2270   39.2540 O.3    52  TYR52      -0.2866
     79  N         47.6280    5.3270   38.4060 N.3    57  GLN57      -0.1245
     80  CA        46.6580    6.0960   37.6390 C.3    57  GLN57       0.1566
     81  C         46.9480    6.6310   36.2470 C.2    57  GLN57       0.2260
     82  O         46.0150    6.9730   35.5320 O.2    57  GLN57      -0.2867
     83  CB        46.1440    7.2320   38.5190 C.3    57  GLN57       0.0367
     84  CG        45.1720    6.7410   39.5760 C.3    57  GLN57       0.0905
     85  CD        44.8190    7.7990   40.5900 C.2    57  GLN57       0.2608
     86  OE1       44.6710    8.9760   40.2530 O.2    57  GLN57      -0.2717
     87  NE2       44.6660    7.3850   41.8420 N.am   57  GLN57      -0.0878
     88  N         46.3870    3.0250   31.7820 N.3    60  VAL60      -0.1245
     89  CA        45.0480    2.5270   31.5060 C.3    60  VAL60       0.1561
     90  C         45.1210    1.0440   31.1200 C.2    60  VAL60       0.2260
     91  O         46.0310    0.6310   30.3960 O.2    60  VAL60      -0.2867
     92  CB        44.4130    3.3060   30.3190 C.3    60  VAL60       0.0252
     93  CG1       43.0160    2.7840   30.0240 C.3    60  VAL60       0.0019
     94  CG2       44.3760    4.7770   30.6290 C.3    60  VAL60       0.0019
     95  N         37.6210   -0.5290   24.1440 N.3    67  LEU67      -0.1245
     96  CA        38.7170    0.3750   23.8270 C.3    67  LEU67       0.1561
     97  C         39.9080   -0.4680   23.3760 C.2    67  LEU67       0.2260
     98  O         40.5690   -0.1490   22.3810 O.2    67  LEU67      -0.2867
     99  CB        39.0870    1.2170   25.0470 C.3    67  LEU67       0.0270
    100  CG        40.2360    2.2020   24.8290 C.3    67  LEU67       0.0019
    101  CD1       39.9130    3.1660   23.6890 C.3    67  LEU67       0.0001
    102  CD2       40.4880    2.9550   26.1120 C.3    67  LEU67       0.0001
    103  N         42.2080    0.3540   20.0420 N.3    71  PHE71      -0.1241
    104  CA        43.6360    0.6330   20.1430 C.3    71  PHE71       0.1605
    105  C         44.4980   -0.5750   19.7810 C.2    71  PHE71       0.2264
    106  O         45.5500   -0.4300   19.1560 O.2    71  PHE71      -0.2867
    107  CB        43.9800    1.1130   21.5630 C.3    71  PHE71       0.0534
    108  CG        43.6010    2.5480   21.8370 C.ar   71  PHE71      -0.0203
    109  CD1       42.8580    3.2840   20.9140 C.ar   71  PHE71      -0.0042
    110  CD2       43.9920    3.1650   23.0210 C.ar   71  PHE71      -0.0042
    111  CE1       42.5090    4.6120   21.1670 C.ar   71  PHE71      -0.0003
    112  CE2       43.6490    4.4960   23.2850 C.ar   71  PHE71      -0.0003
    113  CZ        42.9030    5.2200   22.3520 C.ar   71  PHE71      -0.0000
    114  N         48.1380    1.2560   28.1160 N.3    76  PHE76      -0.1241
    115  CA        48.9580    2.3580   27.6360 C.3    76  PHE76       0.1605
    116  C         49.0230    3.4280   28.7250 C.2    76  PHE76       0.2264
    117  O         48.2870    3.3700   29.7200 O.2    76  PHE76      -0.2867
    118  CB        48.4110    2.9280   26.3060 C.3    76  PHE76       0.0534
    119  CG        47.0200    3.4930   26.4000 C.ar   76  PHE76      -0.0203
    120  CD1       46.8120    4.8090   26.8080 C.ar   76  PHE76      -0.0042
    121  CD2       45.9120    2.6960   26.1210 C.ar   76  PHE76      -0.0042
    122  CE1       45.5230    5.3190   26.9420 C.ar   76  PHE76      -0.0003
    123  CE2       44.6190    3.1920   26.2520 C.ar   76  PHE76      -0.0003
    124  CZ        44.4210    4.5090   26.6660 C.ar   76  PHE76      -0.0000
    125  N         48.7830    7.4800   29.7020 N.3    78  VAL78      -0.1245
    126  CA        48.1830    8.7340   29.2570 C.3    78  VAL78       0.1561
    127  C         49.2310    9.8420   29.1870 C.2    78  VAL78       0.2260
    128  O         48.9210   10.9800   28.8510 O.2    78  VAL78      -0.2867
    129  CB        47.0610    9.1950   30.2070 C.3    78  VAL78       0.0252
    130  CG1       45.9980    8.1120   30.3240 C.3    78  VAL78       0.0019
    131  CG2       47.6450    9.5430   31.5720 C.3    78  VAL78       0.0019
    132  N         51.4040   11.0760   24.7950 N.3    81  HIS81      -0.1241
    133  CA        50.4350   11.6430   23.8770 C.3    81  HIS81       0.1621
    134  C         50.5430   11.2590   22.4120 C.2    81  HIS81       0.2264
    135  O         49.5360   10.9310   21.7920 O.2    81  HIS81      -0.2867
    136  CB        50.4380   13.1630   24.0180 C.3    81  HIS81       0.0745
    137  CG        50.1410   13.6310   25.4100 C.ar   81  HIS81       0.0817
    138  ND1       49.7010   14.9060   25.6940 N.ar   81  HIS81      -0.2268
    139  CD2       50.2200   12.9880   26.6000 C.ar   81  HIS81       0.1154
    140  CE1       49.5170   15.0260   26.9970 C.ar   81  HIS81       0.1986
    141  NE2       49.8240   13.8780   27.5690 N.ar   81  HIS81      -0.2212
    142  N         49.1080    7.7140   21.7910 N.3    84  ILE84      -0.1231
    143  CA        47.6510    7.6340   21.8830 C.3    84  ILE84       0.1692
    144  C         47.0190    8.1890   20.6090 C.2    84  ILE84       0.2592
    145  O         46.0970    7.6080   20.0510 O.2    84  ILE84      -0.2718
    146  CB        47.1240    8.4210   23.0820 C.3    84  ILE84       0.0266
    147  CG1       47.3630    7.6170   24.3580 C.3    84  ILE84       0.0019
    148  CG2       45.6470    8.7500   22.8820 C.3    84  ILE84       0.0020
    149  CD1       46.9460    8.3320   25.6080 C.3    84  ILE84       0.0001
    150  N         47.5270    9.3240   20.1540 N.am   85  TYR85      -0.1976
    151  CA        47.0290    9.9450   18.9450 C.3    85  TYR85       0.1639
    152  C         47.0640    8.9900   17.7520 C.2    85  TYR85       0.2290
    153  O         46.0500    8.7600   17.0930 O.2    85  TYR85      -0.2864
    154  CB        47.8570   11.1940   18.6260 C.3    85  TYR85       0.0560
    155  CG        47.1750   12.4900   18.9970 C.ar   85  TYR85      -0.0198
    156  CD1       46.8330   12.7650   20.3230 C.ar   85  TYR85      -0.0009
    157  CD2       46.8080   13.4140   18.0140 C.ar   85  TYR85      -0.0009
    158  CE1       46.1370   13.9210   20.6610 C.ar   85  TYR85       0.0417
    159  CE2       46.1070   14.5770   18.3390 C.ar   85  TYR85       0.0417
    160  CZ        45.7710   14.8220   19.6670 C.ar   85  TYR85       0.1957
    161  OH        45.0590   15.9530   20.0020 O.3    85  TYR85      -0.2866
@<TRIPOS>BOND
     1   153   152    2
     2   152   151    1
     3   157   159   ar
     4   157   155   ar
     5   159   160   ar
     6   154   151    1
     7   154   155    1
     8   151   150    1
     9   155   156   ar
    10   106   105    2
    11   160   161    1
    12   160   158   ar
    13   105   104    1
    14   103   104    1
    15   145   144    2
    16   104   107    1
    17   150   144   am
    18   156   158   ar
    19   144   143    1
    20   109   111   ar
    21   109   108   ar
    22   111   113   ar
    23   107   108    1
    24   142   143    1
    25   135   134    2
    26   108   110   ar
    27   143   146    1
    28    11    12    1
    29   113   112   ar
    30    98    97    2
    31   134   133    1
    32    17    16    1
    33    37    35    1
    34    16    18    1
    35    16    15    1
    36   148   146    1
    37   110   112   ar
    38   146   147    1
    39     2     1    1
    40     2     3    1
    41    36    35    1
    42    12    15    1
    43    12    13    1
    44    97    96    1
    45    35    34    1
    46   101   100    1
    47    96    95    1
    48    96    99    1
    49   133   136    1
    50   133   132    1
    51     4     3    2
    52     3     5   am
    53   136   137    1
    54    34    31    1
    55   147   149    1
    56     8     7    2
    57    19    13   am
    58    19    20    1
    59    13    14    2
    60     5     6    1
    61   100    99    1
    62   100   102    1
    63     7     6    1
    64    30    31    1
    65    31    32    1
    66    23    20    1
    67    23    24    1
    68   137   138   ar
    69   137   139   ar
    70     6     9    1
    71    20    21    1
    72   138   140   ar
    73    21    22    2
    74   121   123   ar
    75   121   119   ar
    76   123   124   ar
    77   118   119    1
    78   118   115    1
    79   119   120   ar
    80    24    26   ar
    81    24    25   ar
    82   139   141   ar
    83    26    28   ar
    84   124   122   ar
    85    32    38   am
    86    32    33    2
    87     9    10    1
    88   120   122   ar
    89   140   141   ar
    90    38    39    1
    91    25    27   ar
    92   115   114    1
    93   115   116    1
    94    28    29   ar
    95    39    40    1
    96    58    56    1
    97    27    29   ar
    98   116   117    2
    99   128   127    2
   100    56    55    1
   101    42    40   am
   102    42    43    1
   103   127   126    1
   104   126   125    1
   105   126   129    1
   106    40    41    2
   107    46    47    1
   108    46    43    1
   109    47    48    1
   110    51    52    1
   111    43    44    1
   112    93    92    1
   113    44    45    2
   114   129   130    1
   115   129   131    1
   116    92    94    1
   117    92    89    1
   118    55    52    1
   119    55    57    1
   120    91    90    2
   121    52    53    1
   122    48    50   am
   123    48    49    2
   124    90    89    1
   125    89    88    1
   126    53    59   am
   127    53    54    2
   128    59    60    1
   129    60    63    1
   130    60    61    1
   131    63    64    1
   132    61    62    2
   133    67    68    1
   134    64    65    1
   135    68    71    1
   136    68    69    1
   137    66    65    1
   138    71    72    1
   139    82    81    2
   140    74    72   ar
   141    74    76   ar
   142    81    80    1
   143    69    70    2
   144    72    73   ar
   145    76    77   ar
   146    80    79    1
   147    80    83    1
   148    73    75   ar
   149    77    75   ar
   150    77    78    1
   151    83    84    1
   152    84    85    1
   153    86    85    2
   154    85    87   am
