@<TRIPOS>MOLECULE
tmp/1t4fA00.pdb
 151 147 0 0 0
SMALL
GASTEIGER

@<TRIPOS>ATOM
      1  N          6.6560   11.6740    5.4500 N.3    32  LEU32      -0.1231
      2  CA         7.1300   12.5950    6.4830 C.3    32  LEU32       0.1693
      3  C          8.3330   13.3770    5.9810 C.2    32  LEU32       0.2592
      4  O          8.4200   14.5890    6.1710 O.2    32  LEU32      -0.2718
      5  CB         7.5180   11.8320    7.7570 C.3    32  LEU32       0.0284
      6  CG         6.3510   11.3570    8.6320 C.3    32  LEU32       0.0019
      7  CD1        6.8500   10.3780    9.6890 C.3    32  LEU32       0.0001
      8  CD2        5.6790   12.5610    9.2820 C.3    32  LEU32       0.0001
      9  N          9.2630   12.6770    5.3430 N.am   33  PHE33      -0.1976
     10  CA        10.4500   13.3260    4.8160 C.3    33  PHE33       0.1639
     11  C         10.0910   14.3970    3.7860 C.2    33  PHE33       0.2290
     12  O         10.5440   15.5370    3.8840 O.2    33  PHE33      -0.2864
     13  CB        11.3760   12.2960    4.1710 C.3    33  PHE33       0.0560
     14  CG        12.5180   12.9120    3.4210 C.ar   33  PHE33      -0.0200
     15  CD1       13.5730   13.5060    4.1050 C.ar   33  PHE33      -0.0042
     16  CD2       12.5170   12.9390    2.0290 C.ar   33  PHE33      -0.0042
     17  CE1       14.6200   14.1250    3.4100 C.ar   33  PHE33      -0.0003
     18  CE2       13.5560   13.5540    1.3250 C.ar   33  PHE33      -0.0003
     19  CZ        14.6090   14.1480    2.0240 C.ar   33  PHE33      -0.0000
     20  N          7.2530   15.9780    3.2830 N.3    35  LEU35      -0.1231
     21  CA         6.5010   17.0800    3.8820 C.3    35  LEU35       0.1693
     22  C          7.4670   18.0590    4.5470 C.2    35  LEU35       0.2593
     23  O          7.2900   19.2780    4.4710 O.2    35  LEU35      -0.2718
     24  CB         5.5080   16.5490    4.9200 C.3    35  LEU35       0.0284
     25  CG         4.7810   17.6070    5.7610 C.3    35  LEU35       0.0019
     26  CD1        3.9860   18.5480    4.8560 C.3    35  LEU35       0.0001
     27  CD2        3.8510   16.9080    6.7490 C.3    35  LEU35       0.0001
     28  N          8.4890   17.5240    5.2030 N.am   36  GLY36      -0.1942
     29  CA         9.4640   18.3840    5.8540 C.3    36  GLY36       0.2014
     30  C         10.1520   19.2480    4.8150 C.2    36  GLY36       0.2638
     31  O         10.3180   20.4570    4.9890 O.2    36  GLY36      -0.2714
     32  N         10.5480   18.6250    3.7130 N.am   37  GLN37      -0.1977
     33  CA        11.2210   19.3520    2.6480 C.3    37  GLN37       0.1601
     34  C         10.3160   20.3860    1.9920 C.2    37  GLN37       0.2287
     35  O         10.7810   21.4490    1.5770 O.2    37  GLN37      -0.2864
     36  CB        11.7570   18.3690    1.6080 C.3    37  GLN37       0.0394
     37  CG        12.8580   17.4760    2.1700 C.3    37  GLN37       0.0908
     38  CD        13.9470   18.2840    2.8510 C.2    37  GLN37       0.2608
     39  OE1       14.5980   19.1200    2.2220 O.2    37  GLN37      -0.2717
     40  NE2       14.1460   18.0450    4.1440 N.am   37  GLN37      -0.0878
     41  N          7.7900   21.9910    3.4980 N.3    39  ILE39      -0.1231
     42  CA         7.6750   23.0790    4.4620 C.3    39  ILE39       0.1692
     43  C          8.9200   23.9510    4.3780 C.2    39  ILE39       0.2591
     44  O          8.8390   25.1760    4.3390 O.2    39  ILE39      -0.2718
     45  CB         7.5220   22.5250    5.9030 C.3    39  ILE39       0.0266
     46  CG1        6.1390   21.8850    6.0560 C.3    39  ILE39       0.0019
     47  CG2        7.7280   23.6430    6.9230 C.3    39  ILE39       0.0020
     48  CD1        5.9260   21.1250    7.3450 C.3    39  ILE39       0.0001
     49  N         10.0790   23.3090    4.3370 N.am   40  MET40      -0.1979
     50  CA        11.3300   24.0440    4.2520 C.3    40  MET40       0.1605
     51  C         11.4460   24.8580    2.9760 C.2    40  MET40       0.2287
     52  O         11.7170   26.0590    3.0180 O.2    40  MET40      -0.2864
     53  CB        12.5110   23.0910    4.3220 C.3    40  MET40       0.0413
     54  CG        12.6700   22.4190    5.6470 C.3    40  MET40       0.0598
     55  SD        14.2810   21.6760    5.7220 S.3    40  MET40      -0.1393
     56  CE        15.2880   23.1190    6.0270 C.3    40  MET40       0.0692
     57  N          7.7390   27.9110    8.0500 N.3    45  TYR45      -0.1241
     58  CA         8.0460   28.0580    9.4690 C.3    45  TYR45       0.1605
     59  C          8.4420   29.4890    9.8090 C.2    45  TYR45       0.2264
     60  O          8.7650   30.2900    8.9250 O.2    45  TYR45      -0.2867
     61  CB         9.1840   27.1120    9.8650 C.3    45  TYR45       0.0534
     62  CG        10.4600   27.3160    9.0710 C.ar   45  TYR45      -0.0201
     63  CD1       11.2920   28.4150    9.3070 C.ar   45  TYR45      -0.0009
     64  CD2       10.8240   26.4190    8.0660 C.ar   45  TYR45      -0.0009
     65  CE1       12.4580   28.6130    8.5550 C.ar   45  TYR45       0.0417
     66  CE2       11.9820   26.6080    7.3120 C.ar   45  TYR45       0.0417
     67  CZ        12.7920   27.7030    7.5590 C.ar   45  TYR45       0.1957
     68  OH        13.9250   27.8890    6.7970 O.3    45  TYR45      -0.2866
     69  N         11.5920   28.2970   14.4250 N.3    50  GLN50      -0.1231
     70  CA        11.4400   27.2890   13.3900 C.3    50  GLN50       0.1698
     71  C         10.6940   26.0000   13.7050 C.2    50  GLN50       0.2592
     72  O         10.5330   25.1560   12.8230 O.2    50  GLN50      -0.2718
     73  CB        12.8170   27.0050   12.7850 C.3    50  GLN50       0.0381
     74  CG        13.4730   28.3090   12.3200 C.3    50  GLN50       0.0905
     75  CD        14.7000   28.1160   11.4480 C.2    50  GLN50       0.2608
     76  OE1       15.3770   29.0860   11.0990 O.2    50  GLN50      -0.2717
     77  NE2       14.9890   26.8720   11.0870 N.am   50  GLN50      -0.0878
     78  N         10.2380   25.8350   14.9430 N.am   51  HIS51      -0.1976
     79  CA         9.4540   24.6500   15.2640 C.3    51  HIS51       0.1656
     80  C          7.9710   24.9940   15.1310 C.2    51  HIS51       0.2291
     81  O          7.1030   24.1730   15.4180 O.2    51  HIS51      -0.2864
     82  CB         9.7850   24.1080   16.6680 C.3    51  HIS51       0.0771
     83  CG         9.8230   25.1480   17.7440 C.ar   51  HIS51       0.0820
     84  ND1        8.6880   25.6230   18.3640 N.ar   51  HIS51      -0.2267
     85  CD2       10.8660   25.7810   18.3320 C.ar   51  HIS51       0.1154
     86  CE1        9.0290   26.5000   19.2920 C.ar   51  HIS51       0.1986
     87  NE2       10.3460   26.6140   19.2930 N.ar   51  HIS51      -0.2212
     88  N          5.0070   26.2050   12.4670 N.3    53  VAL53      -0.1245
     89  CA         4.6570   26.2810   11.0490 C.3    53  VAL53       0.1561
     90  C          3.3020   26.9550   10.8160 C.2    53  VAL53       0.2260
     91  O          2.3010   26.5500   11.4050 O.2    53  VAL53      -0.2867
     92  CB         4.5810   24.8590   10.4150 C.3    53  VAL53       0.0252
     93  CG1        4.1690   24.9640    8.9510 C.3    53  VAL53       0.0019
     94  CG2        5.9260   24.1400   10.5520 C.3    53  VAL53       0.0019
     95  N          0.6370   24.9230   13.2700 N.3    69  PHE69      -0.1241
     96  CA         0.9310   23.8250   14.1780 C.3    69  PHE69       0.1605
     97  C          2.3990   23.8380   14.5670 C.2    69  PHE69       0.2264
     98  O          3.2250   24.4700   13.9000 O.2    69  PHE69      -0.2867
     99  CB         0.5600   22.4800   13.5350 C.3    69  PHE69       0.0534
    100  CG         1.3620   22.1390   12.3080 C.ar   69  PHE69      -0.0203
    101  CD1        2.5690   21.4530   12.4200 C.ar   69  PHE69      -0.0042
    102  CD2        0.9100   22.5020   11.0420 C.ar   69  PHE69      -0.0042
    103  CE1        3.3160   21.1300   11.2830 C.ar   69  PHE69      -0.0003
    104  CE2        1.6460   22.1870    9.8990 C.ar   69  PHE69      -0.0003
    105  CZ         2.8500   21.4990   10.0180 C.ar   69  PHE69      -0.0000
    106  N          5.8980   21.6740   15.3110 N.3    71  VAL71      -0.1231
    107  CA         6.5250   20.4280   14.8910 C.3    71  VAL71       0.1692
    108  C          6.5490   19.4260   16.0420 C.2    71  VAL71       0.2591
    109  O          6.6760   18.2240   15.8190 O.2    71  VAL71      -0.2718
    110  CB         7.9730   20.6830   14.3840 C.3    71  VAL71       0.0266
    111  CG1        8.7060   19.3650   14.1590 C.3    71  VAL71       0.0020
    112  CG2        7.9190   21.4740   13.0770 C.3    71  VAL71       0.0020
    113  N          6.4100   19.9230   17.2700 N.am   72  LYS72      -0.1980
    114  CA         6.4220   19.0590   18.4460 C.3    72  LYS72       0.1596
    115  C          5.0860   18.3720   18.7050 C.2    72  LYS72       0.2287
    116  O          4.9840   17.5360   19.6060 O.2    72  LYS72      -0.2864
    117  CB         6.8300   19.8540   19.6910 C.3    72  LYS72       0.0298
    118  CG         8.2400   20.4200   19.6260 C.3    72  LYS72       0.0038
    119  CD         9.2680   19.3180   19.3990 C.3    72  LYS72       0.0206
    120  CE        10.6720   19.8890   19.2690 C.3    72  LYS72       0.1093
    121  NZ        11.6710   18.8290   18.9480 N.3    72  LYS72      -0.1314
    122  N          3.3920   15.8470   17.6210 N.3    74  HIS74      -0.1241
    123  CA         3.4630   14.5940   16.8850 C.3    74  HIS74       0.1621
    124  C          2.1280   13.9170   16.6090 C.2    74  HIS74       0.2264
    125  O          1.8600   13.5310   15.4680 O.2    74  HIS74      -0.2867
    126  CB         4.3990   13.6310   17.6120 C.3    74  HIS74       0.0745
    127  CG         5.8250   14.0910   17.6380 C.ar   74  HIS74       0.0817
    128  ND1        6.2200   15.3130   17.1370 N.ar   74  HIS74      -0.2268
    129  CD2        6.9450   13.5000   18.1170 C.ar   74  HIS74       0.1154
    130  CE1        7.5230   15.4550   17.3060 C.ar   74  HIS74       0.1986
    131  NE2        7.9860   14.3700   17.9000 N.ar   74  HIS74      -0.2212
    132  N          0.2430   15.9440   13.9780 N.3    77  ILE77      -0.1231
    133  CA         0.8180   15.8300   12.6500 C.3    77  ILE77       0.1692
    134  C          0.5400   14.4670   12.0250 C.2    77  ILE77       0.2592
    135  O          0.1400   14.3870   10.8620 O.2    77  ILE77      -0.2718
    136  CB         2.3330   16.1260   12.6890 C.3    77  ILE77       0.0266
    137  CG1        2.5410   17.6060   13.0600 C.3    77  ILE77       0.0019
    138  CG2        2.9730   15.8270   11.3320 C.3    77  ILE77       0.0020
    139  CD1        3.9810   17.9730   13.3850 C.3    77  ILE77       0.0001
    140  N          0.7310   13.3960   12.7890 N.am   78  TYR78      -0.1976
    141  CA         0.4600   12.0640   12.2620 C.3    78  TYR78       0.1639
    142  C         -1.0130   11.9020   11.8910 C.2    78  TYR78       0.2290
    143  O         -1.3300   11.4400   10.7990 O.2    78  TYR78      -0.2864
    144  CB         0.8530   10.9790   13.2740 C.3    78  TYR78       0.0560
    145  CG         2.2850   10.5010   13.1520 C.ar   78  TYR78      -0.0198
    146  CD1        3.3460   11.2780   13.6100 C.ar   78  TYR78      -0.0009
    147  CD2        2.5770    9.2590   12.5840 C.ar   78  TYR78      -0.0009
    148  CE1        4.6660   10.8270   13.5120 C.ar   78  TYR78       0.0417
    149  CE2        3.8890    8.8020   12.4790 C.ar   78  TYR78       0.0417
    150  CZ         4.9280    9.5870   12.9460 C.ar   78  TYR78       0.1957
    151  OH         6.2250    9.1270   12.8630 O.3    78  TYR78      -0.2866
@<TRIPOS>BOND
     1    18    19   ar
     2    18    16   ar
     3    35    34    2
     4    36    37    1
     5    36    33    1
     6    34    33    1
     7    19    17   ar
     8    16    14   ar
     9    37    38    1
    10    39    38    2
    11    33    32    1
    12    38    40   am
    13    51    52    2
    14    51    50    1
    15    20    21    1
    16    17    15   ar
    17    14    15   ar
    18    14    13    1
    19    41    42    1
    20    32    30   am
    21    11    12    2
    22    11    10    1
    23    21    22    1
    24    21    24    1
    25    13    10    1
    26    50    53    1
    27    50    49    1
    28    53    54    1
    29    49    43   am
    30    44    43    2
    31    43    42    1
    32    42    45    1
    33    23    22    2
    34    22    28   am
    35    30    31    2
    36    30    29    1
    37    10     9    1
    38    26    25    1
    39    24    25    1
    40    28    29    1
    41     9     3   am
    42     1     2    1
    43    54    55    1
    44    55    56    1
    45    25    27    1
    46    45    46    1
    47    45    47    1
    48     3     4    2
    49     3     2    1
    50    46    48    1
    51     2     5    1
    52    68    67    1
    53    66    67   ar
    54    66    64   ar
    55    67    65   ar
    56     5     6    1
    57    57    58    1
    58    64    62   ar
    59    65    63   ar
    60     6     8    1
    61     6     7    1
    62    60    59    2
    63    93    92    1
    64    62    63   ar
    65    62    61    1
    66    58    59    1
    67    58    61    1
    68   104   105   ar
    69   104   102   ar
    70   105   103   ar
    71    92    94    1
    72    92    89    1
    73   143   142    2
    74    90    89    1
    75    90    91    2
    76   135   134    2
    77   102   100   ar
    78    89    88    1
    79    77    75   am
    80    76    75    2
    81   103   101   ar
    82   138   136    1
    83    75    74    1
    84   142   141    1
    85   134   133    1
    86   134   140   am
    87   141   140    1
    88   141   144    1
    89   100   101   ar
    90   100    99    1
    91    74    73    1
    92   149   147   ar
    93   149   150   ar
    94   147   145   ar
    95   133   136    1
    96   133   132    1
    97   136   137    1
    98    73    70    1
    99    72    71    2
   100   151   150    1
   101   150   148   ar
   102   137   139    1
   103   112   110    1
   104   145   144    1
   105   145   146   ar
   106    95    96    1
   107    70    71    1
   108    70    69    1
   109   148   146   ar
   110    99    96    1
   111    71    78   am
   112    98    97    2
   113   111   110    1
   114    96    97    1
   115   110   107    1
   116   107   106    1
   117   107   108    1
   118    78    79    1
   119    80    79    1
   120    80    81    2
   121    79    82    1
   122   125   124    2
   123   109   108    2
   124   108   113   am
   125   124   123    1
   126    82    83    1
   127   123   126    1
   128   123   122    1
   129   128   130   ar
   130   128   127   ar
   131   113   114    1
   132   130   131   ar
   133   126   127    1
   134   127   129   ar
   135    83    85   ar
   136    83    84   ar
   137   131   129   ar
   138    85    87   ar
   139    84    86   ar
   140   114   115    1
   141   114   117    1
   142   115   116    2
   143   121   120    1
   144   120   119    1
   145    86    87   ar
   146   119   118    1
   147   118   117    1
