@<TRIPOS>MOLECULE
tmp/1t4jA00.pdb
 120 116 0 0 0
SMALL
GASTEIGER

@<TRIPOS>ATOM
      1  N         57.4230   29.8070   10.2510 N.3   187  SER187     -0.1203
      2  CA        57.6880   29.8760   11.6770 C.3   187  SER187      0.2005
      3  C         56.6130   29.0830   12.4280 C.2   187  SER187      0.2461
      4  O         55.4410   29.1210   12.0460 O.2   187  SER187     -0.2732
      5  CB        57.6900   31.3420   12.1150 C.3   187  SER187      0.2103
      6  OG        57.5490   31.4730   13.5160 O.3   187  SER187     -0.2182
      7  N         57.0050   28.3710   13.4890 N.am  188  PRO188     -0.2717
      8  CA        56.0480   27.6180   14.3130 C.3   188  PRO188      0.1535
      9  C         55.2800   28.5010   15.2990 C.2   188  PRO188      0.2598
     10  O         54.3630   28.0070   15.9680 O.2   188  PRO188     -0.2715
     11  CB        56.9360   26.6360   15.0910 C.3   188  PRO188      0.0310
     12  CG        58.3550   26.9410   14.7170 C.3   188  PRO188      0.0237
     13  CD        58.3830   28.2430   13.9920 C.3   188  PRO188      0.0939
     14  N         55.6510   29.7800   15.3780 N.am  189  ALA189     -0.1978
     15  CA        55.0710   30.7240   16.3340 C.3   189  ALA189      0.1597
     16  C         53.5480   30.6360   16.4490 C.2   189  ALA189      0.2287
     17  O         53.0150   30.4200   17.5370 O.2   189  ALA189     -0.2864
     18  CB        55.4990   32.1610   16.0020 C.3   189  ALA189      0.0319
     19  N         52.1360   27.1000   17.5080 N.3   192  LEU192     -0.1231
     20  CA        52.3700   26.8760   18.9340 C.3   192  LEU192      0.1693
     21  C         51.4400   27.7300   19.7820 C.2   192  LEU192      0.2592
     22  O         50.8950   27.2640   20.7860 O.2   192  LEU192     -0.2718
     23  CB        53.8330   27.1450   19.2930 C.3   192  LEU192      0.0284
     24  CG        54.8320   26.1010   18.7810 C.3   192  LEU192      0.0019
     25  CD1       56.2420   26.6500   18.8260 C.3   192  LEU192      0.0001
     26  CD2       54.7400   24.8000   19.5650 C.3   192  LEU192      0.0001
     27  N         51.2490   28.9780   19.3700 N.am  193  ASN193     -0.1974
     28  CA        50.2940   29.8450   20.0370 C.3   193  ASN193      0.1688
     29  C         48.9330   29.1750   20.0710 C.2   193  ASN193      0.2292
     30  O         48.3200   29.0450   21.1280 O.2   193  ASN193     -0.2864
     31  CB        50.2020   31.1970   19.3320 C.3   193  ASN193      0.1181
     32  CG        49.3080   32.1650   20.0670 C.2   193  ASN193      0.2629
     33  OD1       48.2130   32.5010   19.6090 O.2   193  ASN193     -0.2716
     34  ND2       49.7600   32.6020   21.2330 N.am  193  ASN193     -0.0877
     35  N         48.6060   26.1120   22.3930 N.3   196  PHE196     -0.1227
     36  CA        48.5040   26.4910   23.7990 C.3   196  PHE196      0.1736
     37  C         47.1990   27.2050   24.1420 C.2   196  PHE196      0.2595
     38  O         46.7510   27.1680   25.2940 O.2   196  PHE196     -0.2718
     39  CB        49.7380   27.2810   24.2370 C.3   196  PHE196      0.0547
     40  CG        50.8460   26.4050   24.7400 C.ar  196  PHE196     -0.0202
     41  CD1       51.5440   25.5760   23.8640 C.ar  196  PHE196     -0.0042
     42  CD2       51.1650   26.3700   26.0930 C.ar  196  PHE196     -0.0042
     43  CE1       52.5550   24.7460   24.3260 C.ar  196  PHE196     -0.0003
     44  CE2       52.1730   25.5360   26.5630 C.ar  196  PHE196     -0.0003
     45  CZ        52.8680   24.7260   25.6780 C.ar  196  PHE196     -0.0000
     46  N         46.5850   27.8300   23.1390 N.am  197  LYS197     -0.1980
     47  CA        45.2370   28.3750   23.2770 C.3   197  LYS197      0.1596
     48  C         44.2210   27.2400   23.4030 C.2   197  LYS197      0.2287
     49  O         43.2290   27.3670   24.1250 O.2   197  LYS197     -0.2864
     50  CB        44.8800   29.2860   22.0930 C.3   197  LYS197      0.0298
     51  CG        45.5780   30.6400   22.1060 C.3   197  LYS197      0.0038
     52  CD        44.9720   31.5840   23.1350 C.3   197  LYS197      0.0206
     53  CE        45.1050   33.0530   22.6980 C.3   197  LYS197      0.1093
     54  NZ        46.4520   33.6490   22.9900 N.3   197  LYS197     -0.1314
     55  N         44.8460   25.9990   26.9970 N.3   200  GLU200     -0.1245
     56  CA        44.1990   26.9800   27.8770 C.3   200  GLU200      0.1567
     57  C         42.7210   26.7090   28.1700 C.2   200  GLU200      0.2260
     58  O         42.2600   26.9240   29.2880 O.2   200  GLU200     -0.2867
     59  CB        44.2960   28.3620   27.2400 C.3   200  GLU200      0.0388
     60  CG        45.2540   29.3330   27.9110 C.3   200  GLU200      0.1160
     61  CD        45.0800   30.7500   27.3930 C.2   200  GLU200      0.3649
     62  OE1       44.0490   31.0280   26.7410 O.co2 200  GLU200     -0.2457
     63  OE2       45.9740   31.5870   27.6370 O.co2 200  GLU200     -0.2457
     64  N         56.2250   18.1320   24.0780 N.3   232  LEU232     -0.1245
     65  CA        56.3970   19.2270   25.0230 C.3   232  LEU232      0.1561
     66  C         55.9370   18.8320   26.4200 C.2   232  LEU232      0.2260
     67  O         56.5480   19.2150   27.4090 O.2   232  LEU232     -0.2867
     68  CB        55.6510   20.4720   24.5480 C.3   232  LEU232      0.0270
     69  CG        56.1850   21.2180   23.3240 C.3   232  LEU232      0.0019
     70  CD1       55.1850   22.2910   22.8980 C.3   232  LEU232      0.0001
     71  CD2       57.5400   21.8460   23.6010 C.3   232  LEU232      0.0001
     72  N         61.1870   25.0860   19.3050 N.3   276  GLU276     -0.1231
     73  CA        60.8160   26.4720   19.5780 C.3   276  GLU276      0.1699
     74  C         59.8720   26.5790   20.7760 C.2   276  GLU276      0.2592
     75  O         59.9360   27.5410   21.5430 O.2   276  GLU276     -0.2718
     76  CB        60.1900   27.1320   18.3420 C.3   276  GLU276      0.0402
     77  CG        61.1730   27.4800   17.2330 C.3   276  GLU276      0.1161
     78  CD        62.2470   28.4680   17.6620 C.2   276  GLU276      0.3649
     79  OE1       61.9460   29.3950   18.4450 O.co2 276  GLU276     -0.2457
     80  OE2       63.4040   28.3190   17.2130 O.co2 276  GLU276     -0.2457
     81  N         59.0040   25.5830   20.9270 N.am  277  GLY277     -0.1957
     82  CA        58.1010   25.5090   22.0600 C.3   277  GLY277      0.1869
     83  C         58.8700   25.3520   23.3550 C.2   277  GLY277      0.2309
     84  O         58.5210   25.9630   24.3650 O.2   277  GLY277     -0.2863
     85  N         62.1270   26.2610   23.8960 N.3   279  LYS279     -0.1231
     86  CA        62.8910   27.4880   24.1260 C.3   279  LYS279      0.1693
     87  C         62.0430   28.6380   24.6800 C.2   279  LYS279      0.2592
     88  O         62.5800   29.5840   25.2580 O.2   279  LYS279     -0.2718
     89  CB        63.6060   27.9240   22.8440 C.3   279  LYS279      0.0285
     90  CG        64.7380   26.9940   22.4150 C.3   279  LYS279      0.0035
     91  CD        65.7450   27.7020   21.5180 C.3   279  LYS279      0.0206
     92  CE        65.4520   27.4640   20.0460 C.3   279  LYS279      0.1093
     93  NZ        66.3970   28.2100   19.1650 N.3   279  LYS279     -0.1314
     94  N         60.7260   28.5490   24.5000 N.am  280  PHE280     -0.1962
     95  CA        59.7940   29.5480   25.0230 C.3   280  PHE280      0.1771
     96  C         59.4740   29.2790   26.4940 C.2   280  PHE280      0.2619
     97  O         59.0890   30.1900   27.2250 O.2   280  PHE280     -0.2715
     98  CB        58.5000   29.5560   24.1880 C.3   280  PHE280      0.0574
     99  CG        57.5760   30.7140   24.4870 C.ar  280  PHE280     -0.0200
    100  CD1       57.6150   31.8710   23.7130 C.ar  280  PHE280     -0.0042
    101  CD2       56.6570   30.6410   25.5290 C.ar  280  PHE280     -0.0042
    102  CE1       56.7620   32.9430   23.9850 C.ar  280  PHE280     -0.0003
    103  CE2       55.8070   31.7060   25.8100 C.ar  280  PHE280     -0.0003
    104  CZ        55.8550   32.8560   25.0350 C.ar  280  PHE280     -0.0000
    105  N         59.6730   28.0380   26.9300 N.am  281  ILE281     -0.1963
    106  CA        59.1150   27.5640   28.2040 C.3   281  ILE281      0.1727
    107  C         59.8220   27.8610   29.5600 C.2   281  ILE281      0.2616
    108  O         59.1210   28.0050   30.5610 O.2   281  ILE281     -0.2715
    109  CB        58.6950   26.0630   28.0790 C.3   281  ILE281      0.0290
    110  CG1       57.1610   25.9570   28.0310 C.3   281  ILE281      0.0022
    111  CG2       59.2810   25.2090   29.2150 C.3   281  ILE281      0.0023
    112  CD1       56.6440   24.6380   27.4680 C.3   281  ILE281      0.0001
    113  N         61.1490   27.9930   29.6460 N.am  282  MET282     -0.1977
    114  CA        62.1010   28.0080   28.5440 C.3   282  MET282      0.1605
    115  C         63.0590   26.8270   28.6670 C.2   282  MET282      0.2287
    116  O         64.2700   26.9740   28.5050 O.2   282  MET282     -0.2864
    117  CB        62.8790   29.3290   28.5570 C.3   282  MET282      0.0413
    118  CG        62.0020   30.5530   28.3490 C.3   282  MET282      0.0598
    119  SD        62.3640   31.9100   29.4600 S.3   282  MET282     -0.1393
    120  CE        63.5720   32.8210   28.4730 C.3   282  MET282      0.0692
@<TRIPOS>BOND
     1     1     2    1
     2     2     5    1
     3     2     3    1
     4     4     3    2
     5     5     6    1
     6     3     7   am
     7     7    13    1
     8     7     8    1
     9    13    12    1
    10     8    11    1
    11     8     9    1
    12    12    11    1
    13     9    14   am
    14     9    10    2
    15    14    15    1
    16    18    15    1
    17    15    16    1
    18    16    17    2
    19    80    78   ar
    20    77    78    1
    21    77    76    1
    22    19    20    1
    23    78    79   ar
    24    76    73    1
    25    24    25    1
    26    24    23    1
    27    24    26    1
    28    20    23    1
    29    20    21    1
    30    93    92    1
    31    72    73    1
    32    31    28    1
    33    31    32    1
    34    27    21   am
    35    27    28    1
    36    73    74    1
    37    33    32    2
    38    21    22    2
    39    28    29    1
    40    92    91    1
    41    32    34   am
    42    29    30    2
    43    74    81   am
    44    74    75    2
    45    81    82    1
    46    91    90    1
    47    82    83    1
    48    50    51    1
    49    50    47    1
    50    51    52    1
    51    35    36    1
    52    90    89    1
    53    53    54    1
    54    53    52    1
    55    89    86    1
    56    70    69    1
    57    46    47    1
    58    46    37   am
    59    47    48    1
    60    69    71    1
    61    69    68    1
    62    83    84    2
    63    48    49    2
    64   100   102   ar
    65   100    99   ar
    66    36    37    1
    67    36    39    1
    68    41    43   ar
    69    41    40   ar
    70    85    86    1
    71   102   104   ar
    72    64    65    1
    73    86    87    1
    74    37    38    2
    75    98    99    1
    76    98    95    1
    77    39    40    1
    78    43    45   ar
    79    99   101   ar
    80    94    87   am
    81    94    95    1
    82    68    65    1
    83    87    88    2
    84    40    42   ar
    85    95    96    1
    86    65    66    1
    87   104   103   ar
    88   101   103   ar
    89    45    44   ar
    90    42    44   ar
    91    66    67    2
    92    96   105   am
    93    96    97    2
    94    62    61   ar
    95   105   106    1
    96    55    56    1
    97    59    56    1
    98    59    60    1
    99    61    63   ar
   100    61    60    1
   101   112   110    1
   102    56    57    1
   103   110   109    1
   104   109   106    1
   105   109   111    1
   106    57    58    2
   107   106   107    1
   108   118   117    1
   109   118   119    1
   110   120   119    1
   111   116   115    2
   112   114   117    1
   113   114   115    1
   114   114   113    1
   115   107   113   am
   116   107   108    2
