@<TRIPOS>MOLECULE
tmp/1t4rC00.pdb
 134 123 0 0 0
SMALL
GASTEIGER

@<TRIPOS>ATOM
      1  N        -39.4460   33.3710    4.8340 N.3    96  HIS96      -0.1241
      2  CA       -39.4500   33.7210    3.4240 C.3    96  HIS96       0.1621
      3  C        -40.8090   33.9160    2.7740 C.2    96  HIS96       0.2264
      4  O        -40.8920   34.3900    1.6380 O.2    96  HIS96      -0.2867
      5  CB       -38.6410   32.6840    2.6400 C.3    96  HIS96       0.0745
      6  CG       -37.8790   33.2560    1.4890 C.ar   96  HIS96       0.0817
      7  ND1      -36.9060   32.5460    0.8250 N.ar   96  HIS96      -0.2268
      8  CD2      -37.9250   34.4760    0.9000 C.ar   96  HIS96       0.1154
      9  CE1      -36.3800   33.3040   -0.1210 C.ar   96  HIS96       0.1986
     10  NE2      -36.9860   34.4800   -0.0930 N.ar   96  HIS96      -0.2212
     11  N        -33.4020   26.3920   -1.2580 N.3   121  HIS121     -0.1241
     12  CA       -34.7220   25.8990   -1.5940 C.3   121  HIS121      0.1621
     13  C        -35.3460   26.7460   -2.6760 C.2   121  HIS121      0.2264
     14  O        -35.1330   27.9550   -2.7220 O.2   121  HIS121     -0.2867
     15  CB       -35.6220   25.9470   -0.3700 C.3   121  HIS121      0.0745
     16  CG       -34.9720   25.4190    0.8580 C.ar  121  HIS121      0.0817
     17  ND1      -34.3380   26.2370    1.7680 N.ar  121  HIS121     -0.2268
     18  CD2      -34.8040   24.1520    1.3050 C.ar  121  HIS121      0.1154
     19  CE1      -33.8040   25.4980    2.7220 C.ar  121  HIS121      0.1986
     20  NE2      -34.0740   24.2290    2.4650 N.ar  121  HIS121     -0.2212
     21  N        -38.6590   27.0600   -2.9780 N.3   123  ASP123     -0.1239
     22  CA       -39.8610   27.6590   -2.3620 C.3   123  ASP123      0.1674
     23  C        -40.9530   27.8500   -3.4030 C.2   123  ASP123      0.2266
     24  O        -41.6160   28.8980   -3.4370 O.2   123  ASP123     -0.2867
     25  CB       -39.5500   29.0260   -1.7290 C.3   123  ASP123      0.1410
     26  CG       -38.4780   28.9510   -0.6900 C.2   123  ASP123      0.3668
     27  OD1      -38.1170   27.8400   -0.2840 O.co2 123  ASP123     -0.2456
     28  OD2      -37.9940   30.0110   -0.2740 O.co2 123  ASP123     -0.2456
     29  N        -43.3630   25.2690   -4.0130 N.3   125  ASN125     -0.1240
     30  CA       -44.4030   24.2690   -3.8130 C.3   125  ASN125      0.1653
     31  C        -45.7540   24.9720   -3.8730 C.2   125  ASN125      0.2266
     32  O        -45.8970   26.0990   -3.3880 O.2   125  ASN125     -0.2867
     33  CB       -44.2730   23.5900   -2.4470 C.3   125  ASN125      0.1155
     34  CG       -43.4060   22.3570   -2.4910 C.2   125  ASN125      0.2627
     35  OD1      -43.5590   21.5000   -3.3710 O.2   125  ASN125     -0.2716
     36  ND2      -42.4850   22.2520   -1.5370 N.am  125  ASN125     -0.0877
     37  N        -47.3860   20.3240   -1.2740 N.3   130  THR130     -0.1203
     38  CA       -46.5290   20.5520   -0.1270 C.3   130  THR130      0.1994
     39  C        -46.6940   19.3650    0.7980 C.2   130  THR130      0.2619
     40  O        -47.7980   18.8820    0.9840 O.2   130  THR130     -0.2717
     41  CB       -46.9130   21.8400    0.6010 C.3   130  THR130      0.1784
     42  OG1      -48.1360   22.3370    0.0530 O.3   130  THR130     -0.2211
     43  CG2      -45.8440   22.8750    0.4690 C.3   130  THR130      0.0376
     44  N        -45.5990   18.8710    1.3520 N.am  131  SER131     -0.1937
     45  CA       -45.6610   17.7460    2.2670 C.3   131  SER131      0.2055
     46  C        -46.0500   18.3200    3.6180 C.2   131  SER131      0.2643
     47  O        -46.6010   17.6240    4.4780 O.2   131  SER131     -0.2714
     48  CB       -44.2940   17.0720    2.3500 C.3   131  SER131      0.2130
     49  OG       -43.7440   16.9120    1.0490 O.3   131  SER131     -0.2179
     50  N        -45.7370   19.5980    3.7850 N.am  132  SER132     -0.1949
     51  CA       -46.0620   20.3400    4.9900 C.3   132  SER132      0.1924
     52  C        -46.8140   21.5540    4.4570 C.2   132  SER132      0.2314
     53  O        -46.5440   22.0070    3.3230 O.2   132  SER132     -0.2863
     54  CB       -44.7970   20.8030    5.7020 C.3   132  SER132      0.2116
     55  OG       -44.1710   21.8450    4.9820 O.3   132  SER132     -0.2180
     56  N        -46.4490   24.4490    5.2230 N.3   134  ASN134     -0.1240
     57  CA       -45.6330   25.6340    5.4400 C.3   134  ASN134      0.1653
     58  C        -45.4840   26.5250    4.2100 C.2   134  ASN134      0.2266
     59  O        -44.8050   26.1990    3.2450 O.2   134  ASN134     -0.2867
     60  CB       -44.2660   25.2220    5.9760 C.3   134  ASN134      0.1155
     61  CG       -44.3720   24.4680    7.2780 C.2   134  ASN134      0.2627
     62  OD1      -45.1900   24.8060    8.1250 O.2   134  ASN134     -0.2716
     63  ND2      -43.5510   23.4480    7.4500 N.am  134  ASN134     -0.0877
     64  N        -43.8290   29.2370    3.9080 N.3   136  HIS136     -0.1226
     65  CA       -42.5290   29.8480    3.6580 C.3   136  HIS136      0.1752
     66  C        -41.8630   29.0670    2.5400 C.2   136  HIS136      0.2596
     67  O        -40.8350   29.4660    2.0220 O.2   136  HIS136     -0.2718
     68  CB       -41.6340   29.8470    4.9010 C.3   136  HIS136      0.0759
     69  CG       -41.0140   28.5220    5.1990 C.ar  136  HIS136      0.0818
     70  ND1      -39.7380   28.3960    5.6990 N.ar  136  HIS136     -0.2268
     71  CD2      -41.5060   27.2690    5.0960 C.ar  136  HIS136      0.1154
     72  CE1      -39.4680   27.1130    5.8940 C.ar  136  HIS136      0.1986
     73  NE2      -40.5350   26.4110    5.5310 N.ar  136  HIS136     -0.2212
     74  N        -42.4690   27.9410    2.1820 N.am  137  GLY137     -0.1957
     75  CA       -41.9420   27.1160    1.1120 C.3   137  GLY137      0.1869
     76  C        -42.8080   27.1520   -0.1360 C.2   137  GLY137      0.2309
     77  O        -42.6640   26.3280   -1.0240 O.2   137  GLY137     -0.2863
     78  N        -31.8020   21.4460   -2.1770 N.3   176  ASP176     -0.1239
     79  CA       -32.7460   20.6470   -1.4030 C.3   176  ASP176      0.1674
     80  C        -34.1270   20.9510   -1.9780 C.2   176  ASP176      0.2266
     81  O        -34.9360   21.7050   -1.4200 O.2   176  ASP176     -0.2867
     82  CB       -32.7120   20.9850    0.0860 C.3   176  ASP176      0.1410
     83  CG       -33.7450   20.2100    0.8910 C.2   176  ASP176      0.3668
     84  OD1      -34.1410   19.0930    0.4650 O.co2 176  ASP176     -0.2456
     85  OD2      -34.1510   20.6890    1.9620 O.co2 176  ASP176     -0.2456
     86  N        -37.7970   19.5750   -3.5230 N.3   178  ASP178     -0.1239
     87  CA       -38.7520   18.4820   -3.4590 C.3   178  ASP178      0.1674
     88  C        -39.0670   17.9940   -4.8680 C.2   178  ASP178      0.2266
     89  O        -38.8340   18.7110   -5.8540 O.2   178  ASP178     -0.2867
     90  CB       -40.0570   18.9310   -2.7900 C.3   178  ASP178      0.1410
     91  CG       -39.8620   19.3710   -1.3500 C.2   178  ASP178      0.3668
     92  OD1      -38.9920   18.7960   -0.6500 O.co2 178  ASP178     -0.2456
     93  OD2      -40.5950   20.2870   -0.9050 O.co2 178  ASP178     -0.2456
     94  N        -41.5390   20.2640   -6.7690 N.3   181  GLU181     -0.1245
     95  CA       -40.8660   21.4890   -7.1730 C.3   181  GLU181      0.1567
     96  C        -39.9420   21.2760   -8.3680 C.2   181  GLU181      0.2260
     97  O        -39.9460   22.0710   -9.3020 O.2   181  GLU181     -0.2867
     98  CB       -40.0470   22.0550   -6.0080 C.3   181  GLU181      0.0388
     99  CG       -40.8350   22.4390   -4.7630 C.3   181  GLU181      0.1160
    100  CD       -39.9290   23.0160   -3.6790 C.2   181  GLU181      0.3649
    101  OE1      -39.1610   22.2410   -3.0480 O.co2 181  GLU181     -0.2457
    102  OE2      -39.9760   24.2490   -3.4750 O.co2 181  GLU181     -0.2457
    103  N        -32.3100   34.2800    0.8900 N.3   227  ASP227     -0.1239
    104  CA       -32.5560   33.3640    1.9940 C.3   227  ASP227      0.1674
    105  C        -31.2240   33.0110    2.6310 C.2   227  ASP227      0.2266
    106  O        -30.4360   32.2960    2.0610 O.2   227  ASP227     -0.2867
    107  CB       -33.2040   32.0640    1.5230 C.3   227  ASP227      0.1410
    108  CG       -33.5650   31.1650    2.6840 C.2   227  ASP227      0.3668
    109  OD1      -32.9360   31.2910    3.7560 O.co2 227  ASP227     -0.2456
    110  OD2      -34.4760   30.3380    2.5340 O.co2 227  ASP227     -0.2456
    111  N        -30.3270   30.8190    4.3870 N.3   229  ASP229     -0.1239
    112  CA       -29.9570   29.4050    4.3540 C.3   229  ASP229      0.1674
    113  C        -29.3770   28.9830    3.0020 C.2   229  ASP229      0.2266
    114  O        -29.2780   27.8030    2.6870 O.2   229  ASP229     -0.2867
    115  CB       -31.1320   28.4830    4.7580 C.3   229  ASP229      0.1410
    116  CG       -32.2490   28.4180    3.7180 C.2   229  ASP229      0.3668
    117  OD1      -31.9960   28.6390    2.5040 O.co2 229  ASP229     -0.2456
    118  OD2      -33.4020   28.1300    4.1350 O.co2 229  ASP229     -0.2456
    119  N        -34.0270   25.8340    8.2680 N.3   241  THR241     -0.1218
    120  CA       -33.7480   24.7000    7.4200 C.3   241  THR241      0.1862
    121  C        -32.3270   24.7010    6.7970 C.2   241  THR241      0.2287
    122  O        -32.1700   24.9650    5.5650 O.2   241  THR241     -0.2866
    123  CB       -34.7800   24.7280    6.2610 C.3   241  THR241      0.1770
    124  OG1      -34.3820   25.7120    5.2530 O.3   241  THR241     -0.2211
    125  CG2      -36.1510   25.2120    6.7840 C.3   241  THR241      0.0375
    126  N        -35.1620   34.5030    6.7340 N.3   272  GLU272     -0.1245
    127  CA       -34.8870   33.3160    7.5370 C.3   272  GLU272      0.1567
    128  C        -33.8980   33.4070    8.6930 C.2   272  GLU272      0.2260
    129  O        -33.4930   32.3620    9.2160 O.2   272  GLU272     -0.2867
    130  CB       -34.4940   32.1420    6.6300 C.3   272  GLU272      0.0388
    131  CG       -35.6130   31.6570    5.7000 C.3   272  GLU272      0.1160
    132  CD       -36.8650   31.1720    6.4430 C.2   272  GLU272      0.3649
    133  OE1      -36.7920   30.9640    7.6710 O.co2 272  GLU272     -0.2457
    134  OE2      -37.9220   30.9910    5.8020 O.co2 272  GLU272     -0.2457
@<TRIPOS>BOND
     1    97    96    2
     2    96    95    1
     3    95    94    1
     4    95    98    1
     5    98    99    1
     6    89    88    2
     7    88    87    1
     8    99   100    1
     9    29    30    1
    10    31    30    1
    11    31    32    2
    12    30    33    1
    13   100   102   ar
    14   100   101   ar
    15    86    87    1
    16    87    90    1
    17    24    23    2
    18    23    22    1
    19    35    34    2
    20    21    22    1
    21    90    91    1
    22    14    13    2
    23    13    12    1
    24    34    33    1
    25    34    36   am
    26    22    25    1
    27    78    79    1
    28    80    81    2
    29    80    79    1
    30    25    26    1
    31    12    11    1
    32    12    15    1
    33    79    82    1
    34    91    93   ar
    35    91    92   ar
    36    37    38    1
    37    77    76    2
    38    26    27   ar
    39    26    28   ar
    40    15    16    1
    41    76    75    1
    42    38    41    1
    43    38    39    1
    44     9    10   ar
    45     9     7   ar
    46    10     8   ar
    47    42    41    1
    48    82    83    1
    49    84    83   ar
    50    43    41    1
    51    39    40    2
    52    39    44   am
    53     7     6   ar
    54    16    18   ar
    55    16    17   ar
    56   103   104    1
    57    83    85   ar
    58     8     6   ar
    59    49    48    1
    60    75    74    1
    61    18    20   ar
    62    44    45    1
    63     6     5    1
    64   107   104    1
    65   107   108    1
    66     4     3    2
    67    17    19   ar
    68   104   105    1
    69    67    66    2
    70   106   105    2
    71    74    66   am
    72    45    48    1
    73    45    46    1
    74    20    19   ar
    75   117   116   ar
    76   110   108   ar
    77    66    65    1
    78     5     2    1
    79   108   109   ar
    80   114   113    2
    81     3     2    1
    82   113   112    1
    83    59    58    2
    84    53    52    2
    85     2     1    1
    86    46    50   am
    87    46    47    2
    88    65    64    1
    89    65    68    1
    90   116   118   ar
    91   116   115    1
    92    50    51    1
    93    58    57    1
    94   112   111    1
    95   112   115    1
    96    52    51    1
    97    68    69    1
    98    55    54    1
    99    51    54    1
   100    71    69   ar
   101    71    73   ar
   102    69    70   ar
   103    56    57    1
   104   124   123    1
   105    57    60    1
   106    73    72   ar
   107   122   121    2
   108    70    72   ar
   109   131   132    1
   110   131   130    1
   111   134   132   ar
   112    60    61    1
   113   123   125    1
   114   123   120    1
   115   132   133   ar
   116   130   127    1
   117   126   127    1
   118   121   120    1
   119    61    63   am
   120    61    62    2
   121   120   119    1
   122   127   128    1
   123   128   129    2
