@<TRIPOS>MOLECULE
tmp/1t4sA00.pdb
 99 91 0 0 0
SMALL
GASTEIGER

@<TRIPOS>ATOM
      1  N         -4.8610   41.7400   -4.4040 N.3   121  HIS121     -0.1241
      2  CA        -3.6240   42.5030   -4.4080 C.3   121  HIS121      0.1621
      3  C         -3.7490   43.6900   -3.4430 C.2   121  HIS121      0.2264
      4  O         -4.8430   43.9700   -2.9270 O.2   121  HIS121     -0.2867
      5  CB        -3.3370   43.0240   -5.8150 C.3   121  HIS121      0.0745
      6  CG        -3.7140   42.0680   -6.9060 C.ar  121  HIS121      0.0817
      7  ND1       -4.9420   42.0940   -7.5320 N.ar  121  HIS121     -0.2268
      8  CD2       -3.0260   41.0520   -7.4770 C.ar  121  HIS121      0.1154
      9  CE1       -4.9940   41.1390   -8.4410 C.ar  121  HIS121      0.1986
     10  NE2       -3.8410   40.4920   -8.4290 N.ar  121  HIS121     -0.2212
     11  N         -2.3770   46.8560   -4.3580 N.3   123  ASP123     -0.1239
     12  CA        -2.4750   48.0380   -5.2270 C.3   123  ASP123      0.1674
     13  C         -1.8670   49.2570   -4.5530 C.2   123  ASP123      0.2266
     14  O         -2.3870   50.3720   -4.6640 O.2   123  ASP123     -0.2867
     15  CB        -3.9360   48.3450   -5.5700 C.3   123  ASP123      0.1410
     16  CG        -4.7050   47.1170   -6.0340 C.2   123  ASP123      0.3668
     17  OD1       -4.0870   46.1740   -6.5770 O.co2 123  ASP123     -0.2456
     18  OD2       -5.9420   47.1040   -5.8660 O.co2 123  ASP123     -0.2456
     19  N          1.5440   50.1060   -4.9260 N.3   125  ASN125     -0.1240
     20  CA         2.8460   50.4000   -5.5340 C.3   125  ASN125      0.1653
     21  C          2.9400   51.9020   -5.7550 C.2   125  ASN125      0.2266
     22  O          1.9650   52.5250   -6.1800 O.2   125  ASN125     -0.2867
     23  CB         3.0060   49.7190   -6.9040 C.3   125  ASN125      0.1155
     24  CG         3.4110   48.2540   -6.8090 C.2   125  ASN125      0.2627
     25  OD1        4.3530   47.8950   -6.1020 O.2   125  ASN125     -0.2716
     26  ND2        2.7090   47.4020   -7.5510 N.am  125  ASN125     -0.0877
     27  N          6.2870   50.2570   -9.1360 N.3   130  THR130     -0.1203
     28  CA         5.5620   49.4720  -10.1250 C.3   130  THR130      0.1994
     29  C          6.4040   48.8940  -11.2500 C.2   130  THR130      0.2619
     30  O          7.2680   49.5910  -11.7940 O.2   130  THR130     -0.2717
     31  CB         4.5230   50.3140  -10.8220 C.3   130  THR130      0.1784
     32  OG1        3.3300   49.5440  -10.9990 O.3   130  THR130     -0.2211
     33  CG2        5.0520   50.7940  -12.1580 C.3   130  THR130      0.0376
     34  N          6.1390   47.6540  -11.6200 N.am  131  SER131     -0.1937
     35  CA         6.8400   46.9660  -12.7130 C.3   131  SER131      0.2055
     36  C          6.2150   47.4080  -14.0220 C.2   131  SER131      0.2643
     37  O          6.8760   47.5350  -15.0500 O.2   131  SER131     -0.2714
     38  CB         6.6930   45.4510  -12.5880 C.3   131  SER131      0.2130
     39  OG         7.3710   44.9620  -11.4410 O.3   131  SER131     -0.2179
     40  N          4.9130   47.6860  -13.9380 N.am  132  SER132     -0.1949
     41  CA         4.1100   48.1450  -15.0590 C.3   132  SER132      0.1924
     42  C          3.5560   49.5090  -14.7200 C.2   132  SER132      0.2314
     43  O          3.0460   49.7290  -13.6090 O.2   132  SER132     -0.2863
     44  CB         2.9420   47.1780  -15.3030 C.3   132  SER132      0.2116
     45  OG         2.1280   47.0500  -14.1520 O.3   132  SER132     -0.2180
     46  N          1.0760   50.6170  -14.9030 N.3   134  ASN134     -0.1240
     47  CA        -0.3420   50.4960  -14.5400 C.3   134  ASN134      0.1653
     48  C         -0.7620   51.1780  -13.2400 C.2   134  ASN134      0.2266
     49  O         -0.3230   50.7960  -12.1460 O.2   134  ASN134     -0.2867
     50  CB        -0.7430   49.0200  -14.4640 C.3   134  ASN134      0.1155
     51  CG        -0.5330   48.2890  -15.7720 C.2   134  ASN134      0.2627
     52  OD1       -0.4750   48.9060  -16.8350 O.2   134  ASN134     -0.2716
     53  ND2       -0.4320   46.9630  -15.7050 N.am  134  ASN134     -0.0877
     54  N         -3.7900   51.1650  -11.9390 N.3   136  HIS136     -0.1226
     55  CA        -4.7560   50.3880  -11.1750 C.3   136  HIS136      0.1752
     56  C         -4.0600   49.6080  -10.0590 C.2   136  HIS136      0.2596
     57  O         -4.7190   48.9650   -9.2360 O.2   136  HIS136     -0.2718
     58  CB        -5.5280   49.4210  -12.0860 C.3   136  HIS136      0.0759
     59  CG        -4.7600   48.1960  -12.4720 C.ar  136  HIS136      0.0818
     60  ND1       -5.3730   47.0010  -12.7800 N.ar  136  HIS136     -0.2268
     61  CD2       -3.4290   47.9880  -12.6400 C.ar  136  HIS136      0.1154
     62  CE1       -4.4590   46.1130  -13.1230 C.ar  136  HIS136      0.1986
     63  NE2       -3.2720   46.6850  -13.0480 N.ar  136  HIS136     -0.2212
     64  N         -2.7290   49.6680  -10.0390 N.am  137  GLY137     -0.1957
     65  CA        -1.9610   48.9680   -9.0210 C.3   137  GLY137      0.1869
     66  C         -1.2970   49.9060   -8.0240 C.2   137  GLY137      0.2309
     67  O         -0.5140   49.4790   -7.1620 O.2   137  GLY137     -0.2863
     68  N         -1.3380   38.0450   -4.0220 N.3   176  ASP176     -0.1239
     69  CA        -0.3500   38.2960   -5.0640 C.3   176  ASP176      0.1674
     70  C          0.2720   39.6680   -4.8300 C.2   176  ASP176      0.2266
     71  O         -0.1160   40.6640   -5.4510 O.2   176  ASP176     -0.2867
     72  CB        -1.0080   38.2370   -6.4420 C.3   176  ASP176      0.1410
     73  CG         0.0030   38.2700   -7.5680 C.2   176  ASP176      0.3668
     74  OD1        1.0780   37.6520   -7.4170 O.co2 176  ASP176     -0.2456
     75  OD2       -0.2890   38.9000   -8.6060 O.co2 176  ASP176     -0.2456
     76  N          3.6060   42.2810   -4.6510 N.3   178  ASP178     -0.1239
     77  CA         4.9240   42.5580   -5.1800 C.3   178  ASP178      0.1674
     78  C          5.8270   42.8540   -3.9930 C.2   178  ASP178      0.2266
     79  O          5.3470   43.2920   -2.9450 O.2   178  ASP178     -0.2867
     80  CB         4.8630   43.7550   -6.1220 C.3   178  ASP178      0.1410
     81  CG         3.8810   43.5440   -7.2600 C.2   178  ASP178      0.3668
     82  OD1        3.8830   42.4440   -7.8550 O.co2 178  ASP178     -0.2456
     83  OD2        3.1090   44.4760   -7.5680 O.co2 178  ASP178     -0.2456
     84  N          5.4860   46.2530   -2.6450 N.3   181  GLU181     -0.1245
     85  CA         4.2300   46.3570   -1.9240 C.3   181  GLU181      0.1567
     86  C          4.3270   45.7230   -0.5400 C.2   181  GLU181      0.2260
     87  O          3.8130   46.2850    0.4280 O.2   181  GLU181     -0.2867
     88  CB         3.1040   45.7030   -2.7280 C.3   181  GLU181      0.0388
     89  CG         2.7470   46.4680   -3.9890 C.3   181  GLU181      0.1160
     90  CD         1.5330   45.8980   -4.6870 C.2   181  GLU181      0.3649
     91  OE1        1.6180   44.7630   -5.2150 O.co2 181  GLU181     -0.2457
     92  OE2        0.4910   46.5890   -4.6980 O.co2 181  GLU181     -0.2457
     93  N         -6.7560   40.3710  -13.5970 N.3   241  THR241     -0.1218
     94  CA        -5.7210   39.7260  -12.7960 C.3   241  THR241      0.1862
     95  C         -6.1420   38.4940  -12.0140 C.2   241  THR241      0.2287
     96  O         -5.9010   38.4120  -10.8210 O.2   241  THR241     -0.2866
     97  CB        -5.0940   40.7300  -11.7740 C.3   241  THR241      0.1770
     98  OG1       -5.6680   42.0390  -11.9170 O.3   241  THR241     -0.2211
     99  CG2       -3.5990   40.8360  -11.9970 C.3   241  THR241      0.0375
@<TRIPOS>BOND
     1    52    51    2
     2    51    53   am
     3    51    50    1
     4    44    41    1
     5    44    45    1
     6    41    42    1
     7    41    40    1
     8    37    36    2
     9    46    47    1
    10    42    43    2
    11    47    50    1
    12    47    48    1
    13    36    40   am
    14    36    35    1
    15    93    94    1
    16    48    49    2
    17    62    63   ar
    18    62    60   ar
    19    63    61   ar
    20    94    95    1
    21    94    97    1
    22    60    59   ar
    23    35    38    1
    24    35    34    1
    25    61    59   ar
    26    38    39    1
    27    59    58    1
    28    33    31    1
    29    58    55    1
    30    95    96    2
    31    99    97    1
    32    54    55    1
    33    98    97    1
    34    30    29    2
    35    34    29   am
    36    29    28    1
    37    55    56    1
    38    32    31    1
    39    31    28    1
    40    28    27    1
    41    56    64   am
    42    56    57    2
    43    64    65    1
    44    65    66    1
    45    75    73   ar
    46     9    10   ar
    47     9     7   ar
    48    10     8   ar
    49    66    67    2
    50    82    81   ar
    51    83    81   ar
    52    73    74   ar
    53    73    72    1
    54    26    24   am
    55     7     6   ar
    56     8     6   ar
    57    81    80    1
    58     6     5    1
    59    23    24    1
    60    23    20    1
    61    24    25    2
    62    17    16   ar
    63    72    69    1
    64    22    21    2
    65    80    77    1
    66    16    18   ar
    67    16    15    1
    68     5     2    1
    69    21    20    1
    70    15    12    1
    71    20    19    1
    72    71    70    2
    73    12    13    1
    74    12    11    1
    75    91    90   ar
    76    77    76    1
    77    77    78    1
    78    69    70    1
    79    69    68    1
    80    92    90   ar
    81    90    89    1
    82    14    13    2
    83     2     1    1
    84     2     3    1
    85    78    79    2
    86    89    88    1
    87     3     4    2
    88    88    85    1
    89    84    85    1
    90    85    86    1
    91    86    87    2
