@<TRIPOS>MOLECULE
tmp/1t4tA00.pdb
 134 123 0 0 0
SMALL
GASTEIGER

@<TRIPOS>ATOM
      1  N          4.1210   41.5310   11.8520 N.3    96  HIS96      -0.1241
      2  CA         4.5610   41.9020   10.5110 C.3    96  HIS96       0.1621
      3  C          5.4000   43.1710   10.3760 C.2    96  HIS96       0.2264
      4  O          5.8710   43.4750    9.2760 O.2    96  HIS96      -0.2867
      5  CB         3.3320   42.0100    9.6040 C.3    96  HIS96       0.0745
      6  CG         3.5460   41.4740    8.2210 C.ar   96  HIS96       0.0817
      7  ND1        2.5010   41.1540    7.3810 N.ar   96  HIS96      -0.2268
      8  CD2        4.6780   41.1690    7.5460 C.ar   96  HIS96       0.1154
      9  CE1        2.9800   40.6660    6.2500 C.ar   96  HIS96       0.1986
     10  NE2        4.2980   40.6650    6.3240 N.ar   96  HIS96      -0.2212
     11  N         -4.7150   42.1430    5.0410 N.3   121  HIS121     -0.1241
     12  CA        -4.5320   43.5690    5.1600 C.3   121  HIS121      0.1621
     13  C         -3.4560   44.0920    4.2290 C.2   121  HIS121      0.2264
     14  O         -2.6050   43.3330    3.7800 O.2   121  HIS121     -0.2867
     15  CB        -4.1680   43.9260    6.5990 C.3   121  HIS121      0.0745
     16  CG        -5.0480   43.2830    7.6120 C.ar  121  HIS121      0.0817
     17  ND1       -4.7300   42.0920    8.2260 N.ar  121  HIS121     -0.2268
     18  CD2       -6.2390   43.6690    8.1330 C.ar  121  HIS121      0.1154
     19  CE1       -5.6840   41.7770    9.0860 C.ar  121  HIS121      0.1986
     20  NE2       -6.6090   42.7190    9.0500 N.ar  121  HIS121     -0.2212
     21  N         -1.3970   46.6650    5.1470 N.3   123  ASP123     -0.1239
     22  CA        -0.2840   47.1160    5.9950 C.3   123  ASP123      0.1674
     23  C          0.4790   48.2730    5.3700 C.2   123  ASP123      0.2266
     24  O          1.7100   48.3290    5.4420 O.2   123  ASP123     -0.2867
     25  CB         0.7070   45.9650    6.2630 C.3   123  ASP123      0.1410
     26  CG         0.0590   44.7760    6.9650 C.2   123  ASP123      0.3668
     27  OD1       -1.0310   44.9290    7.5660 O.co2 123  ASP123     -0.2456
     28  OD2        0.6510   43.6820    6.9260 O.co2 123  ASP123     -0.2456
     29  N         -0.5300   51.6420    5.9380 N.3   125  ASN125     -0.1240
     30  CA        -0.9340   52.8710    6.5980 C.3   125  ASN125      0.1653
     31  C          0.3280   53.6450    6.9190 C.2   125  ASN125      0.2266
     32  O          1.3870   53.0490    7.1500 O.2   125  ASN125     -0.2867
     33  CB        -1.6710   52.5790    7.8980 C.3   125  ASN125      0.1155
     34  CG        -3.1610   52.5530    7.7210 C.2   125  ASN125      0.2627
     35  OD1       -3.7390   53.4500    7.0990 O.2   125  ASN125     -0.2716
     36  ND2       -3.8020   51.5360    8.2740 N.am  125  ASN125     -0.0877
     37  N         -2.9600   56.1740   10.4560 N.3   130  THR130     -0.1203
     38  CA        -3.3100   55.0230   11.2790 C.3   130  THR130      0.1994
     39  C         -4.3250   55.3900   12.3320 C.2   130  THR130      0.2619
     40  O         -4.2920   56.4960   12.8720 O.2   130  THR130     -0.2717
     41  CB        -2.1120   54.4410   12.0460 C.3   130  THR130      0.1784
     42  OG1       -1.0550   55.3660   12.0520 O.3   130  THR130     -0.2211
     43  CG2       -1.6090   53.2600   11.4480 C.3   130  THR130      0.0376
     44  N         -5.2140   54.4480   12.6410 N.am  131  SER131     -0.1937
     45  CA        -6.2340   54.6600   13.6610 C.3   131  SER131      0.2055
     46  C         -5.6970   54.1730   15.0130 C.2   131  SER131      0.2643
     47  O         -6.2930   54.4490   16.0600 O.2   131  SER131     -0.2714
     48  CB        -7.5120   53.8960   13.3030 C.3   131  SER131      0.2130
     49  OG        -7.9200   54.1570   11.9710 O.3   131  SER131     -0.2179
     50  N         -4.5760   53.4440   14.9670 N.am  132  SER132     -0.1949
     51  CA        -3.8690   52.8770   16.1340 C.3   132  SER132      0.1924
     52  C         -2.4100   53.1320   15.8050 C.2   132  SER132      0.2314
     53  O         -2.0480   53.0750   14.6440 O.2   132  SER132     -0.2863
     54  CB        -4.0690   51.3690   16.1760 C.3   132  SER132      0.2116
     55  OG        -3.6500   50.7990   14.9430 O.3   132  SER132     -0.2180
     56  N         -0.2270   51.2170   15.7710 N.3   134  ASN134     -0.1240
     57  CA         0.3720   49.9000   15.5320 C.3   134  ASN134      0.1653
     58  C          1.1820   49.7730   14.2450 C.2   134  ASN134      0.2266
     59  O          0.6380   49.7650   13.1450 O.2   134  ASN134     -0.2867
     60  CB        -0.6950   48.8040   15.5960 C.3   134  ASN134      0.1155
     61  CG        -1.4150   48.7640   16.9460 C.2   134  ASN134      0.2627
     62  OD1       -0.8410   49.1080   17.9920 O.2   134  ASN134     -0.2716
     63  ND2       -2.6770   48.3220   16.9260 N.am  134  ASN134     -0.0877
     64  N          2.7260   47.2030   12.9780 N.3   136  HIS136     -0.1226
     65  CA         2.5930   45.9950   12.1760 C.3   136  HIS136      0.1752
     66  C          1.6680   46.2670   11.0070 C.2   136  HIS136      0.2596
     67  O          1.5470   45.4570   10.0920 O.2   136  HIS136     -0.2718
     68  CB         2.0470   44.8080   12.9960 C.3   136  HIS136      0.0759
     69  CG         0.5740   44.8630   13.2530 C.ar  136  HIS136      0.0818
     70  ND1       -0.1930   43.7290   13.4030 N.ar  136  HIS136     -0.2268
     71  CD2       -0.2690   45.9100   13.4150 C.ar  136  HIS136      0.1154
     72  CE1       -1.4460   44.0730   13.6440 C.ar  136  HIS136      0.1986
     73  NE2       -1.5190   45.3920   13.6570 N.ar  136  HIS136     -0.2212
     74  N          1.0070   47.4240   11.0400 N.am  137  GLY137     -0.1957
     75  CA         0.0910   47.7640    9.9750 C.3   137  GLY137      0.1869
     76  C          0.6180   48.8690    9.0850 C.2   137  GLY137      0.2309
     77  O         -0.1120   49.4370    8.2800 O.2   137  GLY137     -0.2863
     78  N         -9.6400   43.4370    4.3380 N.3   176  ASP176     -0.1239
     79  CA        -9.8370   44.3750    5.4520 C.3   176  ASP176      0.1674
     80  C         -8.8510   45.5070    5.2770 C.2   176  ASP176      0.2266
     81  O         -7.7710   45.5150    5.8740 O.2   176  ASP176     -0.2867
     82  CB        -9.6390   43.6830    6.8110 C.3   176  ASP176      0.1410
     83  CG        -9.8710   44.6300    7.9920 C.2   176  ASP176      0.3668
     84  OD1      -10.5290   45.6700    7.7960 O.co2 176  ASP176     -0.2456
     85  OD2       -9.4050   44.3350    9.1150 O.co2 176  ASP176     -0.2456
     86  N         -8.2820   49.7350    5.3030 N.3   178  ASP178     -0.1239
     87  CA        -8.7970   51.0030    5.8150 C.3   178  ASP178      0.1674
     88  C         -8.9790   52.0110    4.6870 C.2   178  ASP178      0.2266
     89  O         -8.3580   51.8980    3.6340 O.2   178  ASP178     -0.2867
     90  CB        -7.8390   51.5920    6.8660 C.3   178  ASP178      0.1410
     91  CG        -7.6300   50.6650    8.0590 C.2   178  ASP178      0.3668
     92  OD1       -8.4840   49.7700    8.2900 O.co2 178  ASP178     -0.2456
     93  OD2       -6.6180   50.8440    8.7700 O.co2 178  ASP178     -0.2456
     94  N         -5.7110   53.4890    3.4810 N.3   181  GLU181     -0.1245
     95  CA        -4.9530   52.4980    2.7250 C.3   181  GLU181      0.1567
     96  C         -5.5460   52.3180    1.3290 C.2   181  GLU181      0.2260
     97  O         -4.8170   52.2390    0.3400 O.2   181  GLU181     -0.2867
     98  CB        -4.9660   51.1480    3.4540 C.3   181  GLU181      0.0388
     99  CG        -4.2030   51.1500    4.7700 C.3   181  GLU181      0.1160
    100  CD        -4.2320   49.8130    5.4370 C.2   181  GLU181      0.3649
    101  OE1       -5.0960   49.6240    6.3130 O.co2 181  GLU181     -0.2457
    102  OE2       -3.4040   48.9520    5.0750 O.co2 181  GLU181     -0.2457
    103  N          1.5800   36.9730    5.6760 N.3   227  ASP227     -0.1239
    104  CA         0.8850   37.2260    6.9240 C.3   227  ASP227      0.1674
    105  C         -0.0790   36.0590    7.0510 C.2   227  ASP227      0.2266
    106  O         -0.9440   35.8520    6.2010 O.2   227  ASP227     -0.2867
    107  CB         0.1010   38.5340    6.8970 C.3   227  ASP227      0.1410
    108  CG        -0.5870   38.8170    8.2240 C.2   227  ASP227      0.3668
    109  OD1       -0.7460   37.8700    9.0240 O.co2 227  ASP227     -0.2456
    110  OD2       -0.9810   39.9870    8.4540 O.co2 227  ASP227     -0.2456
    111  N         -2.6200   35.7400    8.6670 N.3   229  ASP229     -0.1239
    112  CA        -4.0400   36.0600    8.6760 C.3   229  ASP229      0.1674
    113  C         -4.6300   36.1840    7.2550 C.2   229  ASP229      0.2266
    114  O         -5.8070   36.5140    7.0900 O.2   229  ASP229     -0.2867
    115  CB        -4.3510   37.3180    9.5230 C.3   229  ASP229      0.1410
    116  CG        -3.7220   38.5780    8.9080 C.2   229  ASP229      0.3668
    117  OD1       -3.6500   38.7010    7.6650 O.co2 229  ASP229     -0.2456
    118  OD2       -3.4000   39.4860    9.7310 O.co2 229  ASP229     -0.2456
    119  N         -5.0640   39.4250   14.2760 N.3   241  THR241     -0.1218
    120  CA        -6.1410   40.0820   13.5340 C.3   241  THR241      0.1862
    121  C         -6.7950   39.2200   12.4650 C.2   241  THR241      0.2287
    122  O         -6.5840   39.4580   11.2730 O.2   241  THR241     -0.2866
    123  CB        -5.6590   41.3730   12.8480 C.3   241  THR241      0.1770
    124  OG1       -4.2330   41.3750   12.7780 O.3   241  THR241     -0.2211
    125  CG2       -6.0850   42.5640   13.6250 C.3   241  THR241      0.0375
    126  N          2.9560   36.7540   12.0310 N.3   272  GLU272     -0.1245
    127  CA         1.7510   36.8060   12.8650 C.3   272  GLU272      0.1567
    128  C          1.2430   35.5320   13.5200 C.2   272  GLU272      0.2260
    129  O          0.0800   35.4670   13.9400 O.2   272  GLU272     -0.2867
    130  CB         0.5950   37.4790   12.1020 C.3   272  GLU272      0.0388
    131  CG         0.8690   38.9240   11.6780 C.3   272  GLU272      0.1160
    132  CD         1.1060   39.8820   12.8480 C.2   272  GLU272      0.3649
    133  OE1        0.6860   39.5680   13.9780 O.co2 272  GLU272     -0.2457
    134  OE2        1.6960   40.9630   12.6390 O.co2 272  GLU272     -0.2457
@<TRIPOS>BOND
     1    97    96    2
     2    96    95    1
     3    95    98    1
     4    95    94    1
     5    98    99    1
     6    89    88    2
     7    14    13    2
     8    13    12    1
     9    78    79    1
    10    88    87    1
    11    99   100    1
    12    11    12    1
    13   102   100   ar
    14    21    22    1
    15    12    15    1
    16    80    79    1
    17    80    81    2
    18    86    87    1
    19    23    24    2
    20    23    22    1
    21   100   101   ar
    22    79    82    1
    23   103   104    1
    24    87    90    1
    25    29    30    1
    26    22    25    1
    27   106   105    2
    28     9    10   ar
    29     9     7   ar
    30    25    26    1
    31    10     8   ar
    32    30    31    1
    33    30    33    1
    34    15    16    1
    35    82    83    1
    36    90    91    1
    37   107   104    1
    38   107   108    1
    39    31    32    2
    40   104   105    1
    41    28    26   ar
    42    26    27   ar
    43   114   113    2
    44    35    34    2
    45   113   112    1
    46     7     6   ar
    47     8     6   ar
    48    16    18   ar
    49    16    17   ar
    50   117   116   ar
    51    34    33    1
    52    34    36   am
    53    84    83   ar
    54    83    85   ar
    55    91    92   ar
    56    91    93   ar
    57    18    20   ar
    58     6     5    1
    59   108   110   ar
    60   108   109   ar
    61    17    19   ar
    62    77    76    2
    63   111   112    1
    64   112   115    1
    65   116   115    1
    66   116   118   ar
    67    20    19   ar
    68    76    75    1
    69     4     3    2
    70     5     2    1
    71    75    74    1
    72    67    66    2
    73     3     2    1
    74    37    38    1
    75     2     1    1
    76    66    74   am
    77    66    65    1
    78   122   121    2
    79    38    41    1
    80    38    39    1
    81    43    41    1
    82   131   130    1
    83   131   132    1
    84    49    48    1
    85   126   127    1
    86    41    42    1
    87   130   127    1
    88    65    64    1
    89    65    68    1
    90    39    44   am
    91    39    40    2
    92   121   120    1
    93   134   132   ar
    94    44    45    1
    95   124   123    1
    96   123   120    1
    97   123   125    1
    98   132   133   ar
    99   127   128    1
   100    68    69    1
   101    59    58    2
   102    69    70   ar
   103    69    71   ar
   104    48    45    1
   105    70    72   ar
   106    71    73   ar
   107   128   129    2
   108   120   119    1
   109    72    73   ar
   110    45    46    1
   111    58    57    1
   112    53    52    2
   113    55    54    1
   114    50    46   am
   115    50    51    1
   116    46    47    2
   117    57    60    1
   118    57    56    1
   119    60    61    1
   120    52    51    1
   121    51    54    1
   122    63    61   am
   123    61    62    2
