@<TRIPOS>MOLECULE
tmp/1t4uB00.pdb
 218 221 0 0 0
SMALL
GASTEIGER

@<TRIPOS>ATOM
      1  N         22.5120   -7.0650   18.6020 N.3    43  HIS43      -0.1241
      2  CA        22.4070   -8.4510   18.1640 C.3    43  HIS43       0.1621
      3  C         21.5970   -8.6340   16.8690 C.2    43  HIS43       0.2264
      4  O         21.5980   -9.7160   16.2750 O.2    43  HIS43      -0.2867
      5  CB        21.8400   -9.3350   19.2820 C.3    43  HIS43       0.0745
      6  CG        20.3480   -9.3910   19.3110 C.ar   43  HIS43       0.0817
      7  ND1       19.6020   -8.6030   20.1510 N.ar   43  HIS43      -0.2268
      8  CD2       19.4720  -10.1710   18.6380 C.ar   43  HIS43       0.1154
      9  CE1       18.3230   -8.9030   20.0080 C.ar   43  HIS43       0.1986
     10  NE2       18.2170   -9.8470   19.0970 N.ar   43  HIS43      -0.2212
     11  N         25.7390  -11.1090   15.5970 N.3    47  TYR47      -0.1241
     12  CA        25.5340  -12.1750   16.5510 C.3    47  TYR47       0.1605
     13  C         26.1960  -13.4680   16.0900 C.2    47  TYR47       0.2264
     14  O         25.5290  -14.3620   15.5510 O.2    47  TYR47      -0.2867
     15  CB        24.0560  -12.4410   16.7320 C.3    47  TYR47       0.0534
     16  CG        23.8180  -13.3700   17.8740 C.ar   47  TYR47      -0.0201
     17  CD1       24.2380  -13.0360   19.1690 C.ar   47  TYR47      -0.0009
     18  CD2       23.1980  -14.5870   17.6770 C.ar   47  TYR47      -0.0009
     19  CE1       24.0290  -13.9020   20.2520 C.ar   47  TYR47       0.0417
     20  CE2       22.9750  -15.4590   18.7530 C.ar   47  TYR47       0.0417
     21  CZ        23.3910  -15.1040   20.0390 C.ar   47  TYR47       0.1957
     22  OH        23.1320  -15.9440   21.1040 O.3    47  TYR47      -0.2866
     23  N         25.1960  -17.2530   15.6530 N.3    50  TRP50      -0.1241
     24  CA        24.3390  -17.6010   14.5310 C.3    50  TRP50       0.1605
     25  C         24.8810  -17.1900   13.1770 C.2    50  TRP50       0.2264
     26  O         24.1430  -17.1980   12.1950 O.2    50  TRP50      -0.2867
     27  CB        22.9410  -17.0160   14.6980 C.3    50  TRP50       0.0550
     28  CG        22.2190  -17.5200   15.8840 C.ar   50  TRP50       0.0003
     29  CD1       22.5380  -18.6160   16.6340 C.ar   50  TRP50       0.0946
     30  CD2       21.0970  -16.8990   16.5310 C.ar   50  TRP50       0.0152
     31  NE1       21.6960  -18.7080   17.7190 N.ar   50  TRP50      -0.2442
     32  CE2       20.7930  -17.6750   17.6730 C.ar   50  TRP50       0.0810
     33  CE3       20.3310  -15.7550   16.2680 C.ar   50  TRP50       0.0012
     34  CZ2       19.7520  -17.3480   18.5490 C.ar   50  TRP50       0.0191
     35  CZ3       19.2990  -15.4200   17.1480 C.ar   50  TRP50       0.0001
     36  CH2       19.0190  -16.2180   18.2730 C.ar   50  TRP50       0.0015
     37  N         28.1180  -10.4910   23.4420 N.3    92  TRP92      -0.1241
     38  CA        27.2550  -11.4560   22.7560 C.3    92  TRP92       0.1605
     39  C         27.6450  -12.8500   23.1710 C.2    92  TRP92       0.2264
     40  O         26.8320  -13.7810   23.1180 O.2    92  TRP92      -0.2867
     41  CB        27.3870  -11.3320   21.2350 C.3    92  TRP92       0.0550
     42  CG        28.8010  -11.3280   20.7550 C.ar   92  TRP92       0.0003
     43  CD1       29.5710  -10.2210   20.5090 C.ar   92  TRP92       0.0946
     44  CD2       29.6380  -12.4690   20.4980 C.ar   92  TRP92       0.0152
     45  NE1       30.8380  -10.6020   20.1230 N.ar   92  TRP92      -0.2442
     46  CE2       30.9030  -11.9730   20.0900 C.ar   92  TRP92       0.0810
     47  CE3       29.4370  -13.8590   20.5370 C.ar   92  TRP92       0.0012
     48  CZ2       31.9500  -12.8140   19.7150 C.ar   92  TRP92       0.0191
     49  CZ3       30.4870  -14.7010   20.1490 C.ar   92  TRP92       0.0001
     50  CH2       31.7170  -14.1740   19.7420 C.ar   92  TRP92       0.0015
     51  N         28.1640  -13.8900   26.2010 N.3    94  GLU94      -0.1231
     52  CA        27.4940  -14.3550   27.4130 C.3    94  GLU94       0.1699
     53  C         26.0430  -13.9330   27.5900 C.2    94  GLU94       0.2592
     54  O         25.1850  -14.8020   27.6580 O.2    94  GLU94      -0.2718
     55  CB        28.2760  -13.9650   28.6620 C.3    94  GLU94       0.0402
     56  CG        27.7150  -14.6220   29.9290 C.3    94  GLU94       0.1161
     57  CD        28.0970  -13.9040   31.2300 C.2    94  GLU94       0.3649
     58  OE1       28.8500  -12.9060   31.1870 O.co2  94  GLU94      -0.2457
     59  OE2       27.6610  -14.3680   32.3080 O.co2  94  GLU94      -0.2457
     60  N         25.7630  -12.6430   27.7930 N.am   95  ASN95      -0.1960
     61  CA        24.4050  -12.2460   28.1990 C.3    95  ASN95       0.1819
     62  C         23.7580  -11.1120   27.3980 C.2    95  ASN95       0.2621
     63  O         22.7340  -10.5760   27.8180 O.2    95  ASN95      -0.2715
     64  CB        24.3680  -11.9200   29.6960 C.3    95  ASN95       0.1195
     65  CG        25.4140  -10.9180   30.0830 C.2    95  ASN95       0.2630
     66  OD1       26.1720  -10.4620   29.2210 O.2    95  ASN95      -0.2716
     67  ND2       25.4480  -10.5280   31.3590 N.am   95  ASN95      -0.0877
     68  N         24.3470  -10.7620   26.2500 N.am   96  LEU96      -0.1977
     69  CA        23.8300   -9.6720   25.3980 C.3    96  LEU96       0.1596
     70  C         23.8290   -8.3470   26.1810 C.2    96  LEU96       0.2287
     71  O         22.9230   -7.4880   26.0550 O.2    96  LEU96      -0.2864
     72  CB        22.4090   -9.9960   24.9030 C.3    96  LEU96       0.0297
     73  CG        22.1750  -10.9380   23.7070 C.3    96  LEU96       0.0022
     74  CD1       20.8790  -10.5170   22.9710 C.3    96  LEU96       0.0001
     75  CD2       23.3640  -10.8690   22.7500 C.3    96  LEU96       0.0001
     76  N         20.3340  -16.8530   33.1360 N.3   171  ILE171     -0.1245
     77  CA        21.2710  -15.9090   32.5130 C.3   171  ILE171      0.1561
     78  C         21.5770  -14.7460   33.4840 C.2   171  ILE171      0.2260
     79  O         20.7640  -14.4110   34.3100 O.2   171  ILE171     -0.2867
     80  CB        20.6920  -15.3930   31.1440 C.3   171  ILE171      0.0252
     81  CG1       20.6580  -16.5520   30.1510 C.3   171  ILE171      0.0019
     82  CG2       21.5600  -14.3080   30.5270 C.3   171  ILE171      0.0019
     83  CD1       19.4990  -16.4900   29.2330 C.3   171  ILE171      0.0001
     84  N          4.0690   -9.9260   25.1810 N.3   191  ASP191     -0.1225
     85  CA         5.5270  -10.0230   25.1040 C.3   191  ASP191      0.1805
     86  C          5.9640   -9.7330   23.6890 C.2   191  ASP191      0.2598
     87  O          5.1520   -9.7270   22.7690 O.2   191  ASP191     -0.2718
     88  CB         5.9820  -11.4370   25.5290 C.3   191  ASP191      0.1424
     89  CG         7.5130  -11.6030   25.5640 C.2   191  ASP191      0.3668
     90  OD1        8.2870  -10.6280   25.6940 O.co2 191  ASP191     -0.2456
     91  OD2        7.9640  -12.7610   25.4990 O.co2 191  ASP191     -0.2456
     92  N          7.2250   -9.3680   23.5370 N.am  192  ALA192     -0.1966
     93  CA         7.8360   -9.3070   22.2310 C.3   192  ALA192      0.1728
     94  C          8.0610  -10.7490   21.7600 C.2   192  ALA192      0.2616
     95  O          7.9770  -11.6920   22.5340 O.2   192  ALA192     -0.2715
     96  CB         9.1540   -8.5630   22.3060 C.3   192  ALA192      0.0334
     97  N          8.2870  -10.9040   20.4730 N.am  193  CYS193     -0.1954
     98  CA         8.5700  -12.2000   19.9250 C.3   193  CYS193      0.1843
     99  C          9.3590  -11.9850   18.6530 C.2   193  CYS193      0.2625
    100  O          9.6370  -10.8530   18.2950 O.2   193  CYS193     -0.2714
    101  CB         7.2680  -12.9520   19.6360 C.3   193  CYS193      0.0997
    102  SG         7.5610  -14.6900   19.3940 S.3   193  CYS193     -0.0797
    103  N          9.8610  -13.0760   18.0810 N.am  194  GLU194     -0.1963
    104  CA        10.8290  -13.0290   17.0060 C.3   194  GLU194      0.1733
    105  C         10.4770  -11.9610   15.9810 C.2   194  GLU194      0.2617
    106  O          9.3160  -11.8260   15.5990 O.2   194  GLU194     -0.2715
    107  CB        10.9050  -14.4060   16.3360 C.3   194  GLU194      0.0429
    108  CG        12.0540  -14.5880   15.3470 C.3   194  GLU194      0.1163
    109  CD        12.1490  -16.0040   14.8030 C.2   194  GLU194      0.3649
    110  OE1       11.1010  -16.5920   14.4570 O.co2 194  GLU194     -0.2457
    111  OE2       13.2790  -16.5270   14.7070 O.co2 194  GLU194     -0.2457
    112  N         11.4640  -11.1390   15.6400 N.am  195  GLY195     -0.1940
    113  CA        11.2620  -10.0620   14.6800 C.3   195  GLY195      0.2014
    114  C         11.0250   -8.7050   15.3180 C.2   195  GLY195      0.2639
    115  O         10.9880   -7.7040   14.6180 O.2   195  GLY195     -0.2714
    116  N         10.8550   -8.6810   16.6420 N.am  196  ASP196     -0.1957
    117  CA        10.5550   -7.4550   17.3750 C.3   196  ASP196      0.1840
    118  C         11.8010   -6.7980   17.9780 C.2   196  ASP196      0.2622
    119  O         11.7620   -5.6200   18.3970 O.2   196  ASP196     -0.2715
    120  CB         9.5530   -7.7510   18.4810 C.3   196  ASP196      0.1450
    121  CG         8.1710   -8.0770   17.9530 C.2   196  ASP196      0.3671
    122  OD1        7.6360   -7.3260   17.1140 O.co2 196  ASP196     -0.2456
    123  OD2        7.5380   -8.9890   18.5060 O.co2 196  ASP196     -0.2456
    124  N         12.8540   -7.6030   18.1280 N.am  197  SER197     -0.1950
    125  CA        14.1810   -7.1360   18.5570 C.3   197  SER197      0.1924
    126  C         14.5110   -5.7850   17.9430 C.2   197  SER197      0.2314
    127  O         14.1850   -5.5440   16.7740 O.2   197  SER197     -0.2863
    128  CB        15.2690   -8.1340   18.1320 C.3   197  SER197      0.2116
    129  OG        15.4250   -9.1740   19.0730 O.3   197  SER197     -0.2180
    130  N         14.1560   -3.5100   22.8700 N.3   217  VAL217     -0.1231
    131  CA        13.8020   -4.9440   22.8700 C.3   217  VAL217      0.1692
    132  C         15.0420   -5.7670   22.6130 C.2   217  VAL217      0.2593
    133  O         15.5770   -5.7810   21.4820 O.2   217  VAL217     -0.2718
    134  CB        12.7790   -5.3100   21.7480 C.3   217  VAL217      0.0266
    135  CG1       12.4720   -6.8450   21.7590 C.3   217  VAL217      0.0020
    136  CG2       11.5190   -4.5110   21.9220 C.3   217  VAL217      0.0020
    137  N         15.4200   -6.5460   23.6190 N.am  218  SER218     -0.1938
    138  CA        16.7020   -7.2080   23.6050 C.3   218  SER218      0.2055
    139  C         16.6100   -8.7220   23.5780 C.2   218  SER218      0.2643
    140  O         16.9680   -9.3280   22.5670 O.2   218  SER218     -0.2714
    141  CB        17.5580   -6.7420   24.7830 C.3   218  SER218      0.2130
    142  OG        18.8420   -7.2740   24.6590 O.3   218  SER218     -0.2179
    143  N         16.2560   -9.3370   24.7030 N.am  219  TRP219     -0.1959
    144  CA        16.2010  -10.8000   24.7700 C.3   219  TRP219      0.1771
    145  C         15.1700  -11.3530   25.7380 C.2   219  TRP219      0.2620
    146  O         14.6000  -10.6270   26.5430 O.2   219  TRP219     -0.2715
    147  CB        17.5810  -11.3710   25.1080 C.3   219  TRP219      0.0590
    148  CG        18.0890  -11.0020   26.4770 C.ar  219  TRP219      0.0006
    149  CD1       18.8880   -9.9290   26.7910 C.ar  219  TRP219      0.0946
    150  CD2       17.9620  -11.7740   27.6870 C.ar  219  TRP219      0.0152
    151  NE1       19.2870   -9.9990   28.1100 N.ar  219  TRP219     -0.2442
    152  CE2       18.7430  -11.1200   28.6850 C.ar  219  TRP219      0.0810
    153  CE3       17.2710  -12.9500   28.0290 C.ar  219  TRP219      0.0012
    154  CZ2       18.8580  -11.6180   29.9920 C.ar  219  TRP219      0.0191
    155  CZ3       17.3910  -13.4480   29.3350 C.ar  219  TRP219      0.0001
    156  CH2       18.1800  -12.7780   30.2920 C.ar  219  TRP219      0.0015
    157  N         14.8650  -12.6380   25.5740 N.am  220  GLY220     -0.1940
    158  CA        13.8560  -13.3070   26.3810 C.3   220  GLY220      0.2014
    159  C         13.7470  -14.7480   25.9200 C.2   220  GLY220      0.2639
    160  O         14.1420  -15.0890   24.7850 O.2   220  GLY220     -0.2714
    161  N         13.2800  -15.6090   26.8160 N.am  221  GLU221     -0.1963
    162  CA        13.2190  -17.0370   26.5160 C.3   221  GLU221      0.1733
    163  C         11.7920  -17.4890   26.2230 C.2   221  GLU221      0.2617
    164  O         10.8670  -17.2800   27.0160 O.2   221  GLU221     -0.2715
    165  CB        13.8240  -17.8160   27.6750 C.3   221  GLU221      0.0429
    166  CG        15.0990  -17.1620   28.2240 C.3   221  GLU221      0.1163
    167  CD        15.3320  -17.3940   29.7220 C.2   221  GLU221      0.3649
    168  OE1       14.5040  -16.9880   30.5640 O.co2 221  GLU221     -0.2457
    169  OE2       16.4200  -17.8830   30.0720 O.co2 221  GLU221     -0.2457
    170  N         11.6060  -17.9930   25.0130 N.am  222  GLY222     -0.1940
    171  CA        10.2610  -18.1660   24.4950 C.3   222  GLY222      0.2014
    172  C          9.6020  -16.8320   24.1910 C.2   222  GLY222      0.2639
    173  O         10.2880  -15.8270   24.0110 O.2   222  GLY222     -0.2714
    174  N          8.2860  -16.8390   24.0630 N.am  223  CYS223     -0.1967
    175  CA         7.5420  -15.5990   23.9130 C.3   223  CYS223      0.1712
    176  C          6.2860  -15.7520   24.7390 C.2   223  CYS223      0.2296
    177  O          5.5600  -16.7390   24.5970 O.2   223  CYS223     -0.2864
    178  CB         7.1750  -15.3420   22.4390 C.3   223  CYS223      0.0983
    179  SG         8.5670  -15.4030   21.3340 S.3   223  CYS223     -0.0798
    180  N         10.1820  -13.3490   31.4890 N.3   229  TYR229     -0.1227
    181  CA        10.0200  -11.9180   31.2130 C.3   229  TYR229      0.1736
    182  C         10.8200  -11.4950   29.9800 C.2   229  TYR229      0.2596
    183  O         11.7110  -12.2250   29.5200 O.2   229  TYR229     -0.2718
    184  CB        10.4240  -11.0870   32.4450 C.3   229  TYR229      0.0548
    185  CG         9.5830  -11.3830   33.6520 C.ar  229  TYR229     -0.0200
    186  CD1        9.9550  -12.3770   34.5530 C.ar  229  TYR229     -0.0009
    187  CD2        8.3380  -10.7780   33.8210 C.ar  229  TYR229     -0.0009
    188  CE1        9.1050  -12.7670   35.5590 C.ar  229  TYR229      0.0417
    189  CE2        7.4790  -11.1720   34.8330 C.ar  229  TYR229      0.0417
    190  CZ         7.8620  -12.1740   35.6850 C.ar  229  TYR229      0.1957
    191  OH         6.9230  -12.6600   36.5660 O.3   229  TYR229     -0.2866
    192  N         10.3950  -10.4040   29.3390 N.am  230  GLY230     -0.1942
    193  CA        11.2510   -9.8040   28.3360 C.3   230  GLY230      0.2014
    194  C         12.3320   -8.9530   28.9830 C.2   230  GLY230      0.2639
    195  O         12.0770   -8.3470   30.0390 O.2   230  GLY230     -0.2714
    196  N         13.4680   -8.7980   28.2930 N.am  231  PHE231     -0.1959
    197  CA        14.5880   -7.9910   28.7630 C.3   231  PHE231      0.1771
    198  C         14.9370   -6.9370   27.7300 C.2   231  PHE231      0.2619
    199  O         14.9690   -7.2020   26.5090 O.2   231  PHE231     -0.2715
    200  CB        15.8390   -8.8450   29.0280 C.3   231  PHE231      0.0574
    201  CG        15.7340   -9.7080   30.2610 C.ar  231  PHE231     -0.0200
    202  CD1       14.9390  -10.8610   30.2590 C.ar  231  PHE231     -0.0042
    203  CD2       16.3190   -9.3000   31.4580 C.ar  231  PHE231     -0.0042
    204  CE1       14.7050  -11.5920   31.4380 C.ar  231  PHE231     -0.0003
    205  CE2       16.1030  -10.0180   32.6410 C.ar  231  PHE231     -0.0003
    206  CZ        15.2930  -11.1660   32.6350 C.ar  231  PHE231     -0.0000
    207  N         15.2480   -5.7490   28.2250 N.am  232  TYR232     -0.1974
    208  CA        15.3850   -4.5870   27.3720 C.3   232  TYR232      0.1639
    209  C         16.6840   -3.8940   27.7230 C.2   232  TYR232      0.2290
    210  O         17.0360   -3.8380   28.8960 O.2   232  TYR232     -0.2864
    211  CB        14.2050   -3.6490   27.6040 C.3   232  TYR232      0.0560
    212  CG        12.8700   -4.2660   27.2580 C.ar  232  TYR232     -0.0198
    213  CD1       12.1810   -5.0710   28.1810 C.ar  232  TYR232     -0.0009
    214  CD2       12.3010   -4.0640   26.0140 C.ar  232  TYR232     -0.0009
    215  CE1       10.9570   -5.6530   27.8520 C.ar  232  TYR232      0.0417
    216  CE2       11.0960   -4.6240   25.6880 C.ar  232  TYR232      0.0417
    217  CZ        10.4310   -5.4270   26.5970 C.ar  232  TYR232      0.1957
    218  OH         9.3220   -6.1130   26.1790 O.3   232  TYR232     -0.2866
@<TRIPOS>BOND
     1    26    25    2
     2    25    24    1
     3   110   109   ar
     4    24    27    1
     5    24    23    1
     6   115   114    2
     7   113   114    1
     8   113   112    1
     9    27    28    1
    10   111   109   ar
    11   109   108    1
    12   114   116   am
    13   108   107    1
    14    14    13    2
    15    11    12    1
    16   106   105    2
    17   112   105   am
    18    28    30   ar
    19    28    29   ar
    20   105   104    1
    21    13    12    1
    22    33    30   ar
    23    33    35   ar
    24     4     3    2
    25   107   104    1
    26    30    32   ar
    27    12    15    1
    28    29    31   ar
    29   116   117    1
    30    15    16    1
    31   127   126    2
    32     3     2    1
    33   104   103    1
    34   122   121   ar
    35    35    36   ar
    36   117   118    1
    37   117   120    1
    38    32    31   ar
    39    32    34   ar
    40    18    16   ar
    41    18    20   ar
    42    16    17   ar
    43   126   125    1
    44   121   120    1
    45   121   123   ar
    46   118   124   am
    47   118   119    2
    48   103    99   am
    49   124   125    1
    50   128   125    1
    51   128   129    1
    52     2     1    1
    53     2     5    1
    54    36    34   ar
    55   100    99    2
    56     8    10   ar
    57     8     6   ar
    58    99    98    1
    59    20    21   ar
    60    10     9   ar
    61    17    19   ar
    62     5     6    1
    63     6     7   ar
    64   102   101    1
    65   102   179    1
    66   101    98    1
    67    48    50   ar
    68    48    46   ar
    69    50    49   ar
    70    98    97    1
    71     9     7   ar
    72    21    19   ar
    73    21    22    1
    74    46    45   ar
    75    46    44   ar
    76    45    43   ar
    77    49    47   ar
    78    97    94   am
    79    44    47   ar
    80    44    42   ar
    81    43    42   ar
    82    42    41    1
    83    41    38    1
    84   179   178    1
    85   133   132    2
    86   134   135    1
    87   134   136    1
    88   134   131    1
    89    94    93    1
    90    94    95    2
    91    93    96    1
    92    93    92    1
    93   178   175    1
    94   140   139    2
    95   132   131    1
    96   132   137   am
    97    75    73    1
    98    38    39    1
    99    38    37    1
   100    87    86    2
   101   130   131    1
   102    74    73    1
   103    40    39    2
   104    92    86   am
   105   139   138    1
   106   139   143   am
   107   138   137    1
   108   138   141    1
   109    86    85    1
   110    73    72    1
   111   175   174    1
   112   175   176    1
   113   173   172    2
   114   174   172   am
   115   172   171    1
   116   171   170    1
   117   177   176    2
   118   142   141    1
   119   143   144    1
   120   144   147    1
   121   144   145    1
   122   160   159    2
   123    72    69    1
   124   170   163   am
   125    85    84    1
   126    85    88    1
   127   147   148    1
   128    69    70    1
   129    69    68    1
   130    91    89   ar
   131    88    89    1
   132    89    90   ar
   133   157   145   am
   134   157   158    1
   135   216   214   ar
   136   216   217   ar
   137   145   146    2
   138   159   158    1
   139   159   161   am
   140   214   212   ar
   141    71    70    2
   142   218   217    1
   143    51    52    1
   144   163   162    1
   145   163   164    2
   146    68    62   am
   147   148   149   ar
   148   148   150   ar
   149   199   198    2
   150   162   161    1
   151   162   165    1
   152   217   215   ar
   153   149   151   ar
   154   212   211    1
   155   212   213   ar
   156   208   211    1
   157   208   209    1
   158   208   207    1
   159    62    63    2
   160    62    61    1
   161    52    53    1
   162    52    55    1
   163    53    54    2
   164    53    60   am
   165   165   166    1
   166   150   153   ar
   167   150   152   ar
   168   209   210    2
   169   198   207   am
   170   198   197    1
   171    60    61    1
   172   215   213   ar
   173   153   155   ar
   174   151   152   ar
   175    61    64    1
   176   166   167    1
   177   196   197    1
   178   196   194   am
   179   193   194    1
   180   193   192    1
   181    55    56    1
   182   152   154   ar
   183   197   200    1
   184   194   195    2
   185   200   201    1
   186    66    65    2
   187    83    81    1
   188   155   156   ar
   189   192   182   am
   190   183   182    2
   191    64    65    1
   192   167   169   ar
   193   167   168   ar
   194    56    57    1
   195   182   181    1
   196   154   156   ar
   197    65    67   am
   198    81    80    1
   199   202   201   ar
   200   202   204   ar
   201   201   203   ar
   202    82    80    1
   203    80    77    1
   204    58    57   ar
   205   181   180    1
   206   181   184    1
   207    57    59   ar
   208   204   206   ar
   209   203   205   ar
   210   184   185    1
   211    77    76    1
   212    77    78    1
   213   206   205   ar
   214    78    79    2
   215   185   187   ar
   216   185   186   ar
   217   187   189   ar
   218   186   188   ar
   219   189   190   ar
   220   188   190   ar
   221   190   191    1
