@<TRIPOS>MOLECULE
tmp/1t4vB00.pdb
 210 212 0 0 0
SMALL
GASTEIGER

@<TRIPOS>ATOM
      1  N         22.4380   -7.0080   18.5030 N.3    43  HIS43      -0.1241
      2  CA        22.3180   -8.3940   18.0800 C.3    43  HIS43       0.1621
      3  C         21.5410   -8.5610   16.7580 C.2    43  HIS43       0.2264
      4  O         21.5300   -9.6470   16.1780 O.2    43  HIS43      -0.2867
      5  CB        21.7160   -9.2500   19.2080 C.3    43  HIS43       0.0745
      6  CG        20.2170   -9.2930   19.2260 C.ar   43  HIS43       0.0817
      7  ND1       19.4700   -8.6990   20.2160 N.ar   43  HIS43      -0.2268
      8  CD2       19.3390   -9.9940   18.4670 C.ar   43  HIS43       0.1154
      9  CE1       18.2050   -9.0410   20.0900 C.ar   43  HIS43       0.1986
     10  NE2       18.0980   -9.8290   19.0330 N.ar   43  HIS43      -0.2212
     11  N         25.6640  -11.1500   15.4960 N.3    47  TYR47      -0.1241
     12  CA        25.4420  -12.2600   16.4040 C.3    47  TYR47       0.1605
     13  C         26.0780  -13.5370   15.8930 C.2    47  TYR47       0.2264
     14  O         25.3910  -14.4280   15.3720 O.2    47  TYR47      -0.2867
     15  CB        23.9700  -12.5060   16.6350 C.3    47  TYR47       0.0534
     16  CG        23.7250  -13.3630   17.8370 C.ar   47  TYR47      -0.0201
     17  CD1       24.2260  -12.9910   19.0980 C.ar   47  TYR47      -0.0009
     18  CD2       22.9900  -14.5350   17.7410 C.ar   47  TYR47      -0.0009
     19  CE1       23.9970  -13.7710   20.2330 C.ar   47  TYR47       0.0417
     20  CE2       22.7400  -15.3180   18.8720 C.ar   47  TYR47       0.0417
     21  CZ        23.2560  -14.9270   20.1080 C.ar   47  TYR47       0.1957
     22  OH        23.0790  -15.7330   21.1940 O.3    47  TYR47      -0.2866
     23  N         24.9800  -17.2460   15.5330 N.3    50  TRP50      -0.1241
     24  CA        24.0290  -17.5000   14.4640 C.3    50  TRP50       0.1605
     25  C         24.5940  -17.0590   13.1210 C.2    50  TRP50       0.2264
     26  O         23.8460  -16.8460   12.1750 O.2    50  TRP50      -0.2867
     27  CB        22.7230  -16.7630   14.7530 C.3    50  TRP50       0.0550
     28  CG        22.0180  -17.2790   15.9610 C.ar   50  TRP50       0.0003
     29  CD1       22.3100  -18.4200   16.6550 C.ar   50  TRP50       0.0946
     30  CD2       20.8440  -16.7260   16.5790 C.ar   50  TRP50       0.0152
     31  NE1       21.3850  -18.6200   17.6540 N.ar   50  TRP50      -0.2442
     32  CE2       20.4770  -17.5930   17.6310 C.ar   50  TRP50       0.0810
     33  CE3       20.0610  -15.5850   16.3280 C.ar   50  TRP50       0.0012
     34  CZ2       19.3580  -17.3590   18.4440 C.ar   50  TRP50       0.0191
     35  CZ3       18.9420  -15.3500   17.1390 C.ar   50  TRP50       0.0001
     36  CH2       18.6030  -16.2350   18.1840 C.ar   50  TRP50       0.0015
     37  N         28.1020  -10.4760   23.2130 N.3    92  TRP92      -0.1241
     38  CA        27.3080  -11.4740   22.5210 C.3    92  TRP92       0.1605
     39  C         27.6600  -12.8610   23.0110 C.2    92  TRP92       0.2264
     40  O         26.8360  -13.7650   22.9290 O.2    92  TRP92      -0.2867
     41  CB        27.5080  -11.3930   21.0050 C.3    92  TRP92       0.0550
     42  CG        28.9240  -11.3760   20.5830 C.ar   92  TRP92       0.0003
     43  CD1       29.7080  -10.2730   20.3720 C.ar   92  TRP92       0.0946
     44  CD2       29.7460  -12.5130   20.3120 C.ar   92  TRP92       0.0152
     45  NE1       30.9650  -10.6540   19.9740 N.ar   92  TRP92      -0.2442
     46  CE2       31.0180  -12.0250   19.9270 C.ar   92  TRP92       0.0810
     47  CE3       29.5360  -13.9010   20.3550 C.ar   92  TRP92       0.0012
     48  CZ2       32.0720  -12.8740   19.5800 C.ar   92  TRP92       0.0191
     49  CZ3       30.5820  -14.7430   20.0090 C.ar   92  TRP92       0.0001
     50  CH2       31.8300  -14.2270   19.6270 C.ar   92  TRP92       0.0015
     51  N         28.0820  -13.9840   26.1300 N.3    94  GLU94      -0.1231
     52  CA        27.4050  -14.4640   27.3330 C.3    94  GLU94       0.1699
     53  C         25.9350  -14.0660   27.5360 C.2    94  GLU94       0.2592
     54  O         25.0640  -14.9420   27.6600 O.2    94  GLU94      -0.2718
     55  CB        28.2000  -14.0710   28.5680 C.3    94  GLU94       0.0402
     56  CG        27.6620  -14.6930   29.8380 C.3    94  GLU94       0.1161
     57  CD        28.0960  -13.9440   31.0920 C.2    94  GLU94       0.3649
     58  OE1       29.0140  -13.0870   30.9860 O.co2  94  GLU94      -0.2457
     59  OE2       27.4980  -14.1970   32.1750 O.co2  94  GLU94      -0.2457
     60  N         25.6730  -12.7690   27.7230 N.am   95  ASN95      -0.1960
     61  CA        24.3360  -12.3620   28.1270 C.3    95  ASN95       0.1819
     62  C         23.7070  -11.2070   27.3480 C.2    95  ASN95       0.2621
     63  O         22.7070  -10.6590   27.8130 O.2    95  ASN95      -0.2715
     64  CB        24.3150  -12.0300   29.6260 C.3    95  ASN95       0.1195
     65  CG        25.3150  -10.9660   30.0000 C.2    95  ASN95       0.2630
     66  OD1       26.0890  -10.5080   29.1590 O.2    95  ASN95      -0.2716
     67  ND2       25.3130  -10.5700   31.2670 N.am   95  ASN95      -0.0877
     68  N         24.2770  -10.8310   26.1980 N.am   96  LEU96      -0.1977
     69  CA        23.7480   -9.7090   25.3910 C.3    96  LEU96       0.1596
     70  C         23.7870   -8.4020   26.1720 C.2    96  LEU96       0.2287
     71  O         22.8450   -7.6010   26.1330 O.2    96  LEU96      -0.2864
     72  CB        22.3080   -9.9780   24.9070 C.3    96  LEU96       0.0297
     73  CG        22.1430  -10.9340   23.7160 C.3    96  LEU96       0.0022
     74  CD1       20.7120  -10.9130   23.2270 C.3    96  LEU96       0.0001
     75  CD2       23.1190  -10.5630   22.6170 C.3    96  LEU96       0.0001
     76  N         20.1700  -16.7540   33.2820 N.3   171  ILE171     -0.1245
     77  CA        21.0630  -15.8000   32.5990 C.3   171  ILE171      0.1561
     78  C         21.5280  -14.7540   33.6240 C.2   171  ILE171      0.2260
     79  O         20.7710  -14.3720   34.5220 O.2   171  ILE171     -0.2867
     80  CB        20.3280  -15.0900   31.3550 C.3   171  ILE171      0.0252
     81  CG1       19.8510  -16.1330   30.3330 C.3   171  ILE171      0.0019
     82  CG2       21.2720  -14.1430   30.6080 C.3   171  ILE171      0.0019
     83  CD1       20.9920  -16.8250   29.5800 C.3   171  ILE171      0.0001
     84  N          4.0670   -9.9650   25.2860 N.3   191  ASP191     -0.1225
     85  CA         5.5150   -9.9890   25.2400 C.3   191  ASP191      0.1805
     86  C          5.8880   -9.6120   23.8140 C.2   191  ASP191      0.2598
     87  O          5.0140   -9.4970   22.9480 O.2   191  ASP191     -0.2718
     88  CB         6.0220  -11.4060   25.5870 C.3   191  ASP191      0.1424
     89  CG         7.5530  -11.5020   25.7520 C.2   191  ASP191      0.3668
     90  OD1        8.2820  -10.4900   25.8220 O.co2 191  ASP191     -0.2456
     91  OD2        8.0660  -12.6430   25.8060 O.co2 191  ASP191     -0.2456
     92  N          7.1290   -9.1740   23.6460 N.am  192  ALA192     -0.1966
     93  CA         7.7560   -9.1220   22.3500 C.3   192  ALA192      0.1728
     94  C          8.0340  -10.5570   21.9150 C.2   192  ALA192      0.2616
     95  O          7.8970  -11.4890   22.7010 O.2   192  ALA192     -0.2715
     96  CB         9.0680   -8.3250   22.4200 C.3   192  ALA192      0.0334
     97  N          8.6480  -10.6970   20.7550 N.am  193  CYS193     -0.1954
     98  CA         8.9330  -12.0160   20.2430 C.3   193  CYS193      0.1843
     99  C          9.9200  -11.8640   19.1170 C.2   193  CYS193      0.2625
    100  O         10.4410  -10.7670   18.8720 O.2   193  CYS193     -0.2714
    101  CB         7.6410  -12.6780   19.7450 C.3   193  CYS193      0.0997
    102  SG         7.7300  -14.5000   19.5390 S.3   193  CYS193     -0.0797
    103  N         10.1590  -12.9650   18.4140 N.am  194  GLU194     -0.1963
    104  CA        11.1020  -12.9690   17.3060 C.3   194  GLU194      0.1733
    105  C         10.6680  -11.9350   16.2760 C.2   194  GLU194      0.2616
    106  O          9.4810  -11.8300   15.9820 O.2   194  GLU194     -0.2715
    107  CB        11.1330  -14.3570   16.6660 C.3   194  GLU194      0.0429
    108  CG        12.2660  -14.5390   15.6760 C.3   194  GLU194      0.1163
    109  CD        12.2190  -15.8680   14.9410 C.2   194  GLU194      0.3649
    110  OE1       11.1190  -16.3090   14.5490 O.co2 194  GLU194     -0.2457
    111  OE2       13.2990  -16.4560   14.7210 O.co2 194  GLU194     -0.2457
    112  N         11.6270  -11.1900   15.7350 N.am  195  GLY195     -0.1955
    113  CA        11.3120  -10.1370   14.7810 C.3   195  GLY195      0.1869
    114  C         11.1140   -8.7590   15.3990 C.2   195  GLY195      0.2309
    115  O         11.2430   -7.7540   14.7090 O.2   195  GLY195     -0.2863
    116  N         12.9370   -7.6050   18.0020 N.3   197  SER197     -0.1217
    117  CA        14.2550   -7.1160   18.4720 C.3   197  SER197      0.1889
    118  C         14.6170   -5.7450   17.9140 C.2   197  SER197      0.2288
    119  O         14.3710   -5.4750   16.7340 O.2   197  SER197     -0.2866
    120  CB        15.3830   -8.1040   18.0780 C.3   197  SER197      0.2089
    121  OG        15.3600   -9.2680   18.8830 O.3   197  SER197     -0.2183
    122  N         14.0830   -3.5360   22.7470 N.3   217  VAL217     -0.1231
    123  CA        13.7490   -4.9680   22.7960 C.3   217  VAL217      0.1692
    124  C         14.9940   -5.8180   22.5930 C.2   217  VAL217      0.2593
    125  O         15.6940   -5.6700   21.5760 O.2   217  VAL217     -0.2718
    126  CB        12.7000   -5.3400   21.7200 C.3   217  VAL217      0.0266
    127  CG1       12.3070   -6.8230   21.8410 C.3   217  VAL217      0.0020
    128  CG2       11.4660   -4.4750   21.8700 C.3   217  VAL217      0.0020
    129  N         15.3540   -6.6000   23.6200 N.am  218  SER218     -0.1938
    130  CA        16.6300   -7.3100   23.5860 C.3   218  SER218      0.2055
    131  C         16.5090   -8.8140   23.4690 C.2   218  SER218      0.2643
    132  O         17.0070   -9.3870   22.4910 O.2   218  SER218     -0.2714
    133  CB        17.5110   -6.9800   24.7990 C.3   218  SER218      0.2130
    134  OG        18.8600   -7.3850   24.5370 O.3   218  SER218     -0.2179
    135  N         15.9910   -9.4640   24.5110 N.am  219  TRP219     -0.1959
    136  CA        15.9730  -10.9170   24.5680 C.3   219  TRP219      0.1771
    137  C         14.9700  -11.4440   25.5660 C.2   219  TRP219      0.2620
    138  O         14.3780  -10.6860   26.3420 O.2   219  TRP219     -0.2715
    139  CB        17.3800  -11.4810   24.8560 C.3   219  TRP219      0.0590
    140  CG        17.9330  -11.1760   26.2420 C.ar  219  TRP219      0.0006
    141  CD1       18.7680  -10.1370   26.5840 C.ar  219  TRP219      0.0946
    142  CD2       17.7350  -11.9430   27.4550 C.ar  219  TRP219      0.0152
    143  NE1       19.0940  -10.2080   27.9280 N.ar  219  TRP219     -0.2442
    144  CE2       18.4860  -11.3130   28.4780 C.ar  219  TRP219      0.0810
    145  CE3       17.0020  -13.0960   27.7680 C.ar  219  TRP219      0.0012
    146  CZ2       18.5330  -11.8180   29.8030 C.ar  219  TRP219      0.0191
    147  CZ3       17.0400  -13.5920   29.0840 C.ar  219  TRP219      0.0001
    148  CH2       17.8040  -12.9550   30.0780 C.ar  219  TRP219      0.0015
    149  N         14.5890  -12.6990   25.3560 N.am  220  GLY220     -0.1940
    150  CA        13.7020  -13.3870   26.2720 C.3   220  GLY220      0.2014
    151  C         13.9070  -14.8730   26.0440 C.2   220  GLY220      0.2639
    152  O         14.7940  -15.2790   25.2990 O.2   220  GLY220     -0.2714
    153  N         13.1590  -15.6830   26.7610 N.am  221  GLU221     -0.1963
    154  CA        13.2580  -17.1240   26.6120 C.3   221  GLU221      0.1733
    155  C         11.8990  -17.6360   26.1590 C.2   221  GLU221      0.2617
    156  O         10.9060  -17.5820   26.8960 O.2   221  GLU221     -0.2715
    157  CB        13.7020  -17.7470   27.9490 C.3   221  GLU221      0.0429
    158  CG        15.0690  -17.1940   28.4180 C.3   221  GLU221      0.1163
    159  CD        15.3590  -17.3420   29.9330 C.2   221  GLU221      0.3649
    160  OE1       14.6170  -16.7760   30.7790 O.co2 221  GLU221     -0.2457
    161  OE2       16.4470  -17.8670   30.2580 O.co2 221  GLU221     -0.2457
    162  N         11.8150  -17.9420   24.8750 N.am  222  GLY222     -0.1940
    163  CA        10.5080  -18.1090   24.2800 C.3   222  GLY222      0.2014
    164  C          9.8350  -16.7500   24.1350 C.2   222  GLY222      0.2639
    165  O         10.5290  -15.7330   24.0310 O.2   222  GLY222     -0.2714
    166  N          8.5020  -16.7380   24.1130 N.am  223  CYS223     -0.1967
    167  CA         7.7080  -15.5140   23.9900 C.3   223  CYS223      0.1712
    168  C          6.4720  -15.7360   24.8260 C.2   223  CYS223      0.2296
    169  O          5.7790  -16.7460   24.6580 O.2   223  CYS223     -0.2864
    170  CB         7.2660  -15.2770   22.5420 C.3   223  CYS223      0.0983
    171  SG         8.6240  -15.2230   21.4380 S.3   223  CYS223     -0.0798
    172  N         10.0580  -13.2780   31.3700 N.3   229  TYR229     -0.1227
    173  CA         9.9100  -11.8430   31.1530 C.3   229  TYR229      0.1736
    174  C         10.7470  -11.4310   29.9490 C.2   229  TYR229      0.2596
    175  O         11.7170  -12.1170   29.5820 O.2   229  TYR229     -0.2718
    176  CB        10.3850  -11.0740   32.3940 C.3   229  TYR229      0.0548
    177  CG         9.5590  -11.3540   33.6080 C.ar  229  TYR229     -0.0200
    178  CD1        9.9610  -12.3010   34.5550 C.ar  229  TYR229     -0.0009
    179  CD2        8.3120  -10.7830   33.7400 C.ar  229  TYR229     -0.0009
    180  CE1        9.1160  -12.6630   35.5830 C.ar  229  TYR229      0.0417
    181  CE2        7.4640  -11.1490   34.7530 C.ar  229  TYR229      0.0417
    182  CZ         7.8660  -12.0920   35.6620 C.ar  229  TYR229      0.1957
    183  OH         6.9650  -12.4970   36.6100 O.3   229  TYR229     -0.2866
    184  N         10.3610  -10.3180   29.3180 N.am  230  GLY230     -0.1942
    185  CA        11.2020   -9.7420   28.2830 C.3   230  GLY230      0.2014
    186  C         12.2560   -8.8400   28.8860 C.2   230  GLY230      0.2639
    187  O         11.9820   -8.1450   29.8620 O.2   230  GLY230     -0.2714
    188  N         13.4380   -8.8290   28.2870 N.am  231  PHE231     -0.1959
    189  CA        14.5370   -8.0280   28.7670 C.3   231  PHE231      0.1771
    190  C         14.8520   -7.0000   27.7190 C.2   231  PHE231      0.2619
    191  O         14.7460   -7.2810   26.5150 O.2   231  PHE231     -0.2715
    192  CB        15.7890   -8.8990   29.0250 C.3   231  PHE231      0.0574
    193  CG        15.7040   -9.7200   30.2860 C.ar  231  PHE231     -0.0200
    194  CD1       14.8560  -10.8150   30.3580 C.ar  231  PHE231     -0.0042
    195  CD2       16.3710   -9.3190   31.4420 C.ar  231  PHE231     -0.0042
    196  CE1       14.6570  -11.5010   31.5620 C.ar  231  PHE231     -0.0003
    197  CE2       16.1790   -9.9920   32.6450 C.ar  231  PHE231     -0.0003
    198  CZ        15.3120  -11.0900   32.6970 C.ar  231  PHE231     -0.0000
    199  N         15.3130   -5.8400   28.1710 N.am  232  TYR232     -0.1974
    200  CA        15.5010   -4.6820   27.3110 C.3   232  TYR232      0.1639
    201  C         16.8060   -3.9990   27.6460 C.2   232  TYR232      0.2290
    202  O         17.1530   -3.8810   28.8120 O.2   232  TYR232     -0.2864
    203  CB        14.3340   -3.7030   27.5220 C.3   232  TYR232      0.0560
    204  CG        12.9750   -4.2770   27.2040 C.ar  232  TYR232     -0.0198
    205  CD1       12.2620   -5.0150   28.1590 C.ar  232  TYR232     -0.0009
    206  CD2       12.4070   -4.1220   25.9370 C.ar  232  TYR232     -0.0009
    207  CE1       11.0510   -5.5840   27.8650 C.ar  232  TYR232      0.0417
    208  CE2       11.1850   -4.6830   25.6390 C.ar  232  TYR232      0.0417
    209  CZ        10.5200   -5.4250   26.5970 C.ar  232  TYR232      0.1957
    210  OH         9.3890   -6.1330   26.2510 O.3   232  TYR232     -0.2866
@<TRIPOS>BOND
     1    26    25    2
     2    25    24    1
     3    24    27    1
     4    24    23    1
     5   110   109   ar
     6   115   114    2
     7   111   109   ar
     8    27    28    1
     9   113   114    1
    10   113   112    1
    11   109   108    1
    12    14    13    2
    13    11    12    1
    14   108   107    1
    15   112   105   am
    16    13    12    1
    17    28    30   ar
    18    28    29   ar
    19   106   105    2
    20     4     3    2
    21   105   104    1
    22    33    30   ar
    23    33    35   ar
    24    12    15    1
    25    30    32   ar
    26    15    16    1
    27    29    31   ar
    28   107   104    1
    29   119   118    2
    30     3     2    1
    31    35    36   ar
    32   104   103    1
    33    32    31   ar
    34    32    34   ar
    35    18    16   ar
    36    18    20   ar
    37    16    17   ar
    38   118   117    1
    39   116   117    1
    40   120   117    1
    41   120   121    1
    42     2     1    1
    43     2     5    1
    44    36    34   ar
    45   103    99   am
    46     8    10   ar
    47     8     6   ar
    48    20    21   ar
    49   100    99    2
    50    10     9   ar
    51    17    19   ar
    52    99    98    1
    53     5     6    1
    54     6     7   ar
    55   102   101    1
    56   102   171    1
    57    48    50   ar
    58    48    46   ar
    59    50    49   ar
    60   101    98    1
    61    46    45   ar
    62    46    44   ar
    63    45    43   ar
    64    49    47   ar
    65     9     7   ar
    66    21    19   ar
    67    21    22    1
    68    98    97    1
    69    44    47   ar
    70    44    42   ar
    71    43    42   ar
    72    42    41    1
    73    97    94   am
    74    41    38    1
    75   171   170    1
    76   125   124    2
    77   126   127    1
    78   126   128    1
    79   126   123    1
    80    94    93    1
    81    94    95    2
    82    93    96    1
    83    93    92    1
    84   132   131    2
    85    38    39    1
    86    38    37    1
    87   170   167    1
    88   124   123    1
    89   124   129   am
    90    75    73    1
    91   122   123    1
    92    40    39    2
    93    87    86    2
    94    74    73    1
    95   131   130    1
    96   131   135   am
    97   130   129    1
    98   130   133    1
    99    92    86   am
   100    73    72    1
   101    86    85    1
   102   167   166    1
   103   167   168    1
   104   165   164    2
   105   166   164   am
   106   164   163    1
   107   163   162    1
   108   135   136    1
   109   134   133    1
   110   136   139    1
   111   136   137    1
   112   169   168    2
   113   139   140    1
   114   162   155   am
   115    72    69    1
   116    85    84    1
   117    85    88    1
   118   152   151    2
   119   149   137   am
   120   149   150    1
   121    69    70    1
   122    69    68    1
   123   137   138    2
   124    88    89    1
   125   208   206   ar
   126   208   209   ar
   127    89    91   ar
   128    89    90   ar
   129   206   204   ar
   130   151   150    1
   131   151   153   am
   132    51    52    1
   133    71    70    2
   134   155   154    1
   135   155   156    2
   136    68    62   am
   137   140   141   ar
   138   140   142   ar
   139   210   209    1
   140   191   190    2
   141   141   143   ar
   142   209   207   ar
   143   154   153    1
   144   154   157    1
   145   204   203    1
   146   204   205   ar
   147   200   203    1
   148   200   201    1
   149   200   199    1
   150    52    53    1
   151    52    55    1
   152    62    63    2
   153    62    61    1
   154   142   145   ar
   155   142   144   ar
   156    53    54    2
   157    53    60   am
   158   201   202    2
   159   190   199   am
   160   190   189    1
   161    60    61    1
   162   145   147   ar
   163   207   205   ar
   164   143   144   ar
   165   157   158    1
   166    61    64    1
   167   185   186    1
   168   185   184    1
   169   188   189    1
   170   188   186   am
   171   158   159    1
   172   144   146   ar
   173    55    56    1
   174   189   192    1
   175   186   187    2
   176   192   193    1
   177   147   148   ar
   178    66    65    2
   179   184   174   am
   180    83    81    1
   181   175   174    2
   182    64    65    1
   183   146   148   ar
   184    56    57    1
   185   159   161   ar
   186   159   160   ar
   187   174   173    1
   188    65    67   am
   189   193   194   ar
   190   193   195   ar
   191    81    80    1
   192   194   196   ar
   193    82    80    1
   194    58    57   ar
   195    57    59   ar
   196   173   172    1
   197   173   176    1
   198    80    77    1
   199   195   197   ar
   200   196   198   ar
   201   176   177    1
   202    77    76    1
   203    77    78    1
   204   197   198   ar
   205   177   179   ar
   206   177   178   ar
   207    78    79    2
   208   179   181   ar
   209   178   180   ar
   210   181   182   ar
   211   180   182   ar
   212   182   183    1
