@<TRIPOS>MOLECULE
tmp/1t57C00.pdb
 183 177 0 0 0
SMALL
GASTEIGER

@<TRIPOS>ATOM
      1  N        -14.6140   -9.8040  -37.6810 N.3    37  ALA37      -0.1231
      2  CA       -15.4030   -9.2050  -36.5960 C.3    37  ALA37       0.1694
      3  C        -16.8350   -8.7370  -36.8800 C.2    37  ALA37       0.2593
      4  O        -17.0590   -7.5530  -37.1410 O.2    37  ALA37      -0.2718
      5  CB       -14.5980   -8.0230  -35.9470 C.3    37  ALA37       0.0304
      6  N        -17.8110   -9.6460  -36.8060 N.am   38  SER38      -0.1938
      7  CA       -19.2160   -9.2580  -37.0030 C.3    38  SER38       0.2055
      8  C        -20.0750   -9.5150  -35.7600 C.2    38  SER38       0.2643
      9  O        -20.2880  -10.6680  -35.3620 O.2    38  SER38      -0.2714
     10  CB       -19.8360   -9.9800  -38.1980 C.3    38  SER38       0.2130
     11  OG       -19.8940   -9.1160  -39.3150 O.3    38  SER38      -0.2179
     12  N        -20.5740   -8.4320  -35.1610 N.am   39  VAL39      -0.1963
     13  CA       -21.4080   -8.5190  -33.9580 C.3    39  VAL39       0.1727
     14  C        -22.7980   -9.0870  -34.2360 C.2    39  VAL39       0.2616
     15  O        -23.5310   -9.4210  -33.3030 O.2    39  VAL39      -0.2715
     16  CB       -21.5680   -7.1300  -33.2460 C.3    39  VAL39       0.0290
     17  CG1      -22.2380   -6.1290  -34.1600 C.3    39  VAL39       0.0023
     18  CG2      -22.3800   -7.2890  -31.9580 C.3    39  VAL39       0.0023
     19  N        -23.1590   -9.1860  -35.5150 N.am   40  SER40      -0.1950
     20  CA       -24.4510   -9.7450  -35.9050 C.3    40  SER40       0.1924
     21  C        -24.2120  -10.9700  -36.7860 C.2    40  SER40       0.2314
     22  O        -24.9060  -11.9800  -36.6580 O.2    40  SER40      -0.2863
     23  CB       -25.3050   -8.7100  -36.6600 C.3    40  SER40       0.2116
     24  OG       -24.9720   -8.6310  -38.0390 O.3    40  SER40      -0.2180
     25  N        -23.7110  -10.6420  -40.4330 N.3    42  GLU42      -0.1231
     26  CA       -23.8200  -10.2000  -41.8280 C.3    42  GLU42       0.1699
     27  C        -22.4600  -10.1210  -42.4810 C.2    42  GLU42       0.2592
     28  O        -22.1130  -10.9600  -43.2950 O.2    42  GLU42      -0.2718
     29  CB       -24.5030   -8.8260  -41.9310 C.3    42  GLU42       0.0402
     30  CG       -24.0810   -7.9860  -43.1530 C.3    42  GLU42       0.1161
     31  CD       -25.0090   -8.1060  -44.3560 C.2    42  GLU42       0.3649
     32  OE1      -25.1580   -9.2130  -44.9230 O.co2  42  GLU42      -0.2457
     33  OE2      -25.5880   -7.0670  -44.7360 O.co2  42  GLU42      -0.2457
     34  N        -21.6980   -9.1010  -42.1140 N.am   43  THR43      -0.1953
     35  CA       -20.3680   -8.8770  -42.6460 C.3    43  THR43       0.1897
     36  C        -19.5300  -10.1590  -42.7960 C.2    43  THR43       0.2313
     37  O        -18.5880  -10.1970  -43.5840 O.2    43  THR43      -0.2863
     38  CB       -19.6400   -7.8630  -41.7640 C.3    43  THR43       0.1794
     39  OG1      -20.4360   -6.6710  -41.6750 O.3    43  THR43      -0.2208
     40  CG2      -18.2950   -7.5430  -42.3370 C.3    43  THR43       0.0378
     41  N        -15.7690  -14.2700  -34.8390 N.3    57  VAL57      -0.1231
     42  CA       -15.8420  -13.8730  -33.4420 C.3    57  VAL57       0.1692
     43  C        -16.8480  -12.7350  -33.3140 C.2    57  VAL57       0.2593
     44  O        -16.9680  -11.8870  -34.1970 O.2    57  VAL57      -0.2718
     45  CB       -14.4700  -13.3750  -32.9490 C.3    57  VAL57       0.0266
     46  CG1      -14.6030  -12.6460  -31.6250 C.3    57  VAL57       0.0020
     47  CG2      -13.5210  -14.5420  -32.8080 C.3    57  VAL57       0.0020
     48  N        -17.5790  -12.7150  -32.2100 N.am   58  THR58      -0.1939
     49  CA       -18.5430  -11.6390  -32.0010 C.3    58  THR58       0.2028
     50  C        -18.4230  -11.0660  -30.5850 C.2    58  THR58       0.2642
     51  O        -17.5940  -11.5090  -29.7950 O.2    58  THR58      -0.2714
     52  CB       -19.9970  -12.1200  -32.2230 C.3    58  THR58       0.1808
     53  OG1      -20.8730  -10.9870  -32.2690 O.3    58  THR58      -0.2208
     54  CG2      -20.4460  -13.0240  -31.0870 C.3    58  THR58       0.0379
     55  N        -19.2540  -10.0750  -30.2820 N.am   59  HIS59      -0.1973
     56  CA       -19.2860   -9.4510  -28.9630 C.3    59  HIS59       0.1656
     57  C        -19.5330  -10.4750  -27.8460 C.2    59  HIS59       0.2291
     58  O        -20.4910  -11.2600  -27.9170 O.2    59  HIS59      -0.2864
     59  CB       -20.4130   -8.4140  -28.8920 C.3    59  HIS59       0.0771
     60  CG       -20.0750   -7.0850  -29.4950 C.ar   59  HIS59       0.0820
     61  ND1      -19.2310   -6.9390  -30.5740 N.ar   59  HIS59      -0.2267
     62  CD2      -20.5120   -5.8390  -29.1870 C.ar   59  HIS59       0.1154
     63  CE1      -19.1620   -5.6590  -30.9020 C.ar   59  HIS59       0.1986
     64  NE2      -19.9300   -4.9720  -30.0760 N.ar   59  HIS59      -0.2212
     65  N        -22.2600   -7.7130  -23.4850 N.3    63  PHE63      -0.1241
     66  CA       -21.6490   -6.5000  -24.0140 C.3    63  PHE63       0.1605
     67  C        -22.6800   -5.3750  -23.9830 C.2    63  PHE63       0.2264
     68  O        -22.3290   -4.2010  -23.7800 O.2    63  PHE63      -0.2867
     69  CB       -21.1640   -6.7330  -25.4470 C.3    63  PHE63       0.0534
     70  CG       -20.3550   -5.5920  -26.0170 C.ar   63  PHE63      -0.0203
     71  CD1      -20.9570   -4.3660  -26.3020 C.ar   63  PHE63      -0.0042
     72  CD2      -18.9890   -5.7400  -26.2680 C.ar   63  PHE63      -0.0042
     73  CE1      -20.2190   -3.3020  -26.8250 C.ar   63  PHE63      -0.0003
     74  CE2      -18.2400   -4.6790  -26.7930 C.ar   63  PHE63      -0.0003
     75  CZ       -18.8600   -3.4570  -27.0710 C.ar   63  PHE63      -0.0000
     76  N        -13.1650  -10.1470  -25.1110 N.3    91  HIS91      -0.1241
     77  CA       -12.2730   -9.3750  -25.9810 C.3    91  HIS91       0.1621
     78  C        -10.8400   -9.3500  -25.4200 C.2    91  HIS91       0.2264
     79  O        -10.5960   -8.7510  -24.3660 O.2    91  HIS91      -0.2867
     80  CB       -12.7620   -7.9320  -26.0970 C.3    91  HIS91       0.0745
     81  CG       -14.1500   -7.8000  -26.6310 C.ar   91  HIS91       0.0817
     82  ND1      -14.8670   -8.8690  -27.1230 N.ar   91  HIS91      -0.2268
     83  CD2      -14.9610   -6.7200  -26.7390 C.ar   91  HIS91       0.1154
     84  CE1      -16.0630   -8.4540  -27.5050 C.ar   91  HIS91       0.1986
     85  NE2      -16.1450   -7.1540  -27.2840 N.ar   91  HIS91      -0.2212
     86  N        -11.2670   -4.2170  -18.3350 N.3    98  ARG98      -0.1245
     87  CA       -12.3980   -3.3040  -18.4980 C.3    98  ARG98       0.1563
     88  C        -13.3720   -3.4090  -17.3390 C.2    98  ARG98       0.2260
     89  O        -14.1760   -2.5010  -17.1010 O.2    98  ARG98      -0.2867
     90  CB       -13.1480   -3.5720  -19.8010 C.3    98  ARG98       0.0307
     91  CG       -14.4260   -2.7490  -19.9280 C.3    98  ARG98       0.0489
     92  CD       -14.9810   -2.8700  -21.3120 C.3    98  ARG98       0.2205
     93  NE       -14.0640   -2.2820  -22.2830 N.pl3  98  ARG98      -0.0865
     94  CZ       -14.1260   -2.4930  -23.5920 C.cat  98  ARG98       0.5346
     95  NH1      -15.0620   -3.2870  -24.0950 N.pl3  98  ARG98       0.1354
     96  NH2      -13.2540   -1.9060  -24.3980 N.pl3  98  ARG98       0.1354
     97  N         -5.7540    1.9130  -31.8030 N.3   117  ARG117     -0.1245
     98  CA        -6.8260    2.7570  -32.3240 C.3   117  ARG117      0.1563
     99  C         -6.3850    4.0720  -32.9520 C.2   117  ARG117      0.2260
    100  O         -7.1500    4.6760  -33.7070 O.2   117  ARG117     -0.2867
    101  CB        -7.8390    3.0960  -31.2390 C.3   117  ARG117      0.0307
    102  CG        -8.5760    1.9280  -30.6580 C.3   117  ARG117      0.0489
    103  CD        -9.8450    2.4420  -30.0240 C.3   117  ARG117      0.2205
    104  NE       -10.5730    1.3930  -29.3250 N.pl3 117  ARG117     -0.0865
    105  CZ       -11.7100    1.5950  -28.6670 C.cat 117  ARG117      0.5346
    106  NH1      -12.2430    2.8100  -28.6300 N.pl3 117  ARG117      0.1354
    107  NH2      -12.3080    0.5870  -28.0410 N.pl3 117  ARG117      0.1354
    108  N        -10.1540    2.6460  -35.3510 N.3   120  GLN120     -0.1245
    109  CA       -10.8660    1.8120  -34.3860 C.3   120  GLN120      0.1566
    110  C        -10.8020    0.3950  -34.9440 C.2   120  GLN120      0.2260
    111  O        -10.4750   -0.5680  -34.2430 O.2   120  GLN120     -0.2867
    112  CB       -12.3360    2.2340  -34.2980 C.3   120  GLN120      0.0367
    113  CG       -12.6030    3.6820  -33.9030 C.3   120  GLN120      0.0905
    114  CD       -12.7400    3.8670  -32.3980 C.2   120  GLN120      0.2608
    115  OE1      -13.3190    3.0240  -31.7120 O.2   120  GLN120     -0.2717
    116  NE2      -12.2350    4.9850  -31.8830 N.am  120  GLN120     -0.0878
    117  N         -7.4670   -1.8100  -34.3290 N.3   123  LYS123     -0.1231
    118  CA        -7.2700   -2.6140  -33.1350 C.3   123  LYS123      0.1693
    119  C         -8.0460   -3.9190  -33.1080 C.2   123  LYS123      0.2591
    120  O         -7.4540   -4.9720  -32.8770 O.2   123  LYS123     -0.2718
    121  CB        -7.5560   -1.7880  -31.8660 C.3   123  LYS123      0.0285
    122  CG        -8.7270   -0.8170  -31.9510 C.3   123  LYS123      0.0035
    123  CD        -9.9970   -1.3770  -31.3270 C.3   123  LYS123      0.0206
    124  CE        -9.7650   -1.8240  -29.8820 C.3   123  LYS123      0.1093
    125  NZ       -10.9920   -2.3860  -29.2340 N.3   123  LYS123     -0.1314
    126  N         -9.3500   -3.8690  -33.3680 N.am  124  VAL124     -0.1980
    127  CA       -10.1610   -5.0850  -33.3420 C.3   124  VAL124      0.1595
    128  C         -9.4690   -6.1800  -34.1390 C.2   124  VAL124      0.2287
    129  O         -9.4920   -7.3510  -33.7600 O.2   124  VAL124     -0.2864
    130  CB       -11.5820   -4.8490  -33.9320 C.3   124  VAL124      0.0276
    131  CG1      -12.0960   -3.4830  -33.5220 C.3   124  VAL124      0.0022
    132  CG2      -11.5620   -4.9770  -35.4320 C.3   124  VAL124      0.0022
    133  N         -7.3620   -7.6560  -31.7660 N.3   127  GLU127     -0.1231
    134  CA        -8.1680   -8.1980  -30.6750 C.3   127  GLU127      0.1699
    135  C         -8.6760   -9.5670  -31.0890 C.2   127  GLU127      0.2592
    136  O         -8.1350  -10.5990  -30.6730 O.2   127  GLU127     -0.2718
    137  CB        -9.3420   -7.2560  -30.3990 C.3   127  GLU127      0.0402
    138  CG        -9.8460   -7.2550  -28.9480 C.3   127  GLU127      0.1161
    139  CD       -10.7840   -6.0740  -28.6500 C.2   127  GLU127      0.3649
    140  OE1      -11.1260   -5.3140  -29.5880 O.co2 127  GLU127     -0.2457
    141  OE2      -11.1860   -5.9060  -27.4720 O.co2 127  GLU127     -0.2457
    142  N         -9.7070   -9.5640  -31.9320 N.am  128  ILE128     -0.1980
    143  CA       -10.2970  -10.7930  -32.4470 C.3   128  ILE128      0.1595
    144  C         -9.2110  -11.6940  -33.0020 C.2   128  ILE128      0.2287
    145  O         -9.2780  -12.9050  -32.8750 O.2   128  ILE128     -0.2864
    146  CB       -11.3060  -10.4910  -33.5530 C.3   128  ILE128      0.0276
    147  CG1      -10.5880   -9.9690  -34.7970 C.3   128  ILE128      0.0022
    148  CG2      -12.3110   -9.4570  -33.0630 C.3   128  ILE128      0.0022
    149  CD1      -11.5400   -9.4950  -35.8830 C.3   128  ILE128      0.0001
    150  N        -13.7010   -3.9530  -38.6050 N.3   148  GLY148     -0.1210
    151  CA       -14.2010   -2.6680  -39.0590 C.3   148  GLY148      0.1956
    152  C        -14.6450   -1.7410  -37.9480 C.2   148  GLY148      0.2613
    153  O        -14.6680   -2.1260  -36.7830 O.2   148  GLY148     -0.2717
    154  N        -15.0400   -0.5230  -38.3190 N.am  149  THR149     -0.1938
    155  CA       -15.4500    0.4850  -37.3500 C.3   149  THR149      0.2028
    156  C        -16.9620    0.6380  -37.2580 C.2   149  THR149      0.2642
    157  O        -17.6430    0.7100  -38.2810 O.2   149  THR149     -0.2714
    158  CB       -14.8710    1.8850  -37.7070 C.3   149  THR149      0.1808
    159  OG1      -15.4870    2.3680  -38.9030 O.3   149  THR149     -0.2208
    160  CG2      -13.3570    1.8270  -37.9380 C.3   149  THR149      0.0379
    161  N        -17.4600    0.6960  -36.0230 N.am  150  ALA150     -0.1963
    162  CA       -18.8700    0.9100  -35.7000 C.3   150  ALA150      0.1728
    163  C        -19.8590   -0.1660  -36.1240 C.2   150  ALA150      0.2616
    164  O        -20.3090   -0.9750  -35.3040 O.2   150  ALA150     -0.2715
    165  CB       -19.3310    2.2860  -36.2450 C.3   150  ALA150      0.0334
    166  N        -20.1770   -0.1770  -37.4140 N.am  151  TRP151     -0.1960
    167  CA       -21.1460   -1.1010  -37.9710 C.3   151  TRP151      0.1771
    168  C        -20.7570   -1.6270  -39.3650 C.2   151  TRP151      0.2620
    169  O        -21.6020   -1.6920  -40.2490 O.2   151  TRP151     -0.2715
    170  CB       -22.5090   -0.3910  -38.0580 C.3   151  TRP151      0.0590
    171  CG       -23.1360    0.0480  -36.7250 C.ar  151  TRP151      0.0006
    172  CD1      -23.6800   -0.7650  -35.7660 C.ar  151  TRP151      0.0946
    173  CD2      -23.3290    1.4020  -36.2500 C.ar  151  TRP151      0.0152
    174  NE1      -24.2030   -0.0110  -34.7360 N.ar  151  TRP151     -0.2442
    175  CE2      -24.0030    1.3150  -35.0040 C.ar  151  TRP151      0.0810
    176  CE3      -23.0010    2.6700  -36.7540 C.ar  151  TRP151      0.0012
    177  CZ2      -24.3550    2.4590  -34.2560 C.ar  151  TRP151      0.0191
    178  CZ3      -23.3560    3.8080  -36.0050 C.ar  151  TRP151      0.0001
    179  CH2      -24.0250    3.6880  -34.7730 C.ar  151  TRP151      0.0015
    180  N        -19.4930   -1.9920  -39.5730 N.am  152  GLY152     -0.1954
    181  CA       -19.0830   -2.4920  -40.8790 C.3   152  GLY152      0.1869
    182  C        -17.8410   -3.3730  -40.8940 C.2   152  GLY152      0.2309
    183  O        -17.7190   -4.3320  -40.1400 O.2   152  GLY152     -0.2863
@<TRIPOS>BOND
     1    32    31   ar
     2    33    31   ar
     3    31    30    1
     4    37    36    2
     5    28    27    2
     6    30    29    1
     7    36    35    1
     8    35    34    1
     9    35    38    1
    10    27    34   am
    11    27    26    1
    12    40    38    1
    13    29    26    1
    14    26    25    1
    15    38    39    1
    16   182   181    1
    17   182   183    2
    18   181   180    1
    19   169   168    2
    20   180   168   am
    21   168   167    1
    22    11    10    1
    23   151   150    1
    24   151   152    1
    25   159   158    1
    26   154   152   am
    27   154   155    1
    28   157   156    2
    29    10     7    1
    30   170   167    1
    31   170   171    1
    32    24    23    1
    33   167   166    1
    34   152   153    2
    35   160   158    1
    36   158   155    1
    37     1     2    1
    38   166   163   am
    39   155   156    1
    40   156   161   am
    41     4     3    2
    42     7     6    1
    43     7     8    1
    44     3     6   am
    45     3     2    1
    46    21    22    2
    47    21    20    1
    48   176   173   ar
    49   176   178   ar
    50   171   173   ar
    51   171   172   ar
    52    23    20    1
    53     2     5    1
    54   173   175   ar
    55   165   162    1
    56   163   162    1
    57   163   164    2
    58   161   162    1
    59   178   179   ar
    60    20    19    1
    61   149   147    1
    62   172   174   ar
    63     8     9    2
    64     8    12   am
    65    19    14   am
    66   132   130    1
    67   108   109    1
    68    12    13    1
    69   175   174   ar
    70   175   177   ar
    71   110   109    1
    72   110   111    2
    73    41    42    1
    74   147   146    1
    75   179   177   ar
    76   109   112    1
    77   117   118    1
    78   112   113    1
    79    14    13    1
    80    14    15    2
    81    44    43    2
    82    17    16    1
    83   128   129    2
    84   128   127    1
    85    13    16    1
    86   130   131    1
    87   130   127    1
    88   113   114    1
    89   100    99    2
    90   146   148    1
    91   146   143    1
    92    42    43    1
    93    42    45    1
    94   126   127    1
    95   126   119   am
    96    43    48   am
    97    16    18    1
    98   118   119    1
    99   118   121    1
   100   119   120    2
   101   144   145    2
   102   144   143    1
   103    99    98    1
   104    45    47    1
   105    45    46    1
   106   143   142    1
   107   114   116   am
   108   114   115    2
   109    98    97    1
   110    98   101    1
   111    53    52    1
   112    52    49    1
   113    52    54    1
   114    48    49    1
   115    49    50    1
   116   122   121    1
   117   122   123    1
   118   142   135   am
   119   133   134    1
   120   123   124    1
   121   101   102    1
   122   135   134    1
   123   135   136    2
   124    63    61   ar
   125    63    64   ar
   126   134   137    1
   127   102   103    1
   128    50    55   am
   129    50    51    2
   130    61    60   ar
   131   137   138    1
   132    55    56    1
   133    64    62   ar
   134   103   104    1
   135   124   125    1
   136   140   139   ar
   137    60    62   ar
   138    60    59    1
   139   104   105    2
   140    56    59    1
   141    56    57    1
   142   138   139    1
   143   105   106    1
   144   105   107    1
   145   139   141   ar
   146    58    57    2
   147    84    85   ar
   148    84    82   ar
   149    85    83   ar
   150    82    81   ar
   151    75    73   ar
   152    75    74   ar
   153    73    71   ar
   154    74    72   ar
   155    83    81   ar
   156    81    80    1
   157    71    70   ar
   158    72    70   ar
   159    80    77    1
   160    70    69    1
   161    77    78    1
   162    77    76    1
   163    69    66    1
   164    78    79    2
   165    96    94    1
   166    95    94    1
   167    66    67    1
   168    66    65    1
   169    67    68    2
   170    94    93    2
   171    93    92    1
   172    92    91    1
   173    91    90    1
   174    90    87    1
   175    87    86    1
   176    87    88    1
   177    88    89    2
