@<TRIPOS>MOLECULE
tmp/1t5cA01.pdb
 128 122 0 0 0
SMALL
GASTEIGER

@<TRIPOS>ATOM
      1  N         12.9080    1.5050   52.5430 N.3   131  ILE131     -0.1231
      2  CA        13.5260    2.8280   52.4770 C.3   131  ILE131      0.1692
      3  C         12.9200    3.7000   53.5780 C.2   131  ILE131      0.2592
      4  O         11.7230    3.9640   53.5800 O.2   131  ILE131     -0.2718
      5  CB        13.2810    3.5140   51.1240 C.3   131  ILE131      0.0266
      6  CG1       13.7000    2.5920   49.9840 C.3   131  ILE131      0.0019
      7  CG2       14.1200    4.7640   51.0270 C.3   131  ILE131      0.0020
      8  CD1       13.6950    3.2780   48.6130 C.3   131  ILE131      0.0001
      9  N         13.7560    4.1300   54.5170 N.am  132  TYR132     -0.1962
     10  CA        13.3230    4.9680   55.6290 C.3   132  TYR132      0.1771
     11  C         14.4210    5.9740   55.9920 C.2   132  TYR132      0.2620
     12  O         15.5980    5.6200   56.0360 O.2   132  TYR132     -0.2715
     13  CB        13.0000    4.0890   56.8390 C.3   132  TYR132      0.0574
     14  CG        12.6510    4.8640   58.0880 C.ar  132  TYR132     -0.0198
     15  CD1       11.6320    5.8140   58.0750 C.ar  132  TYR132     -0.0009
     16  CD2       13.3180    4.6280   59.2890 C.ar  132  TYR132     -0.0009
     17  CE1       11.2800    6.5080   59.2220 C.ar  132  TYR132      0.0417
     18  CE2       12.9720    5.3200   60.4470 C.ar  132  TYR132      0.0417
     19  CZ        11.9510    6.2590   60.4040 C.ar  132  TYR132      0.1957
     20  OH        11.5900    6.9510   61.5380 O.3   132  TYR132     -0.2866
     21  N         14.0300    7.2240   56.2290 N.am  133  ASN133     -0.1958
     22  CA        14.9590    8.2980   56.5940 C.3   133  ASN133      0.1819
     23  C         16.2220    8.3270   55.7240 C.2   133  ASN133      0.2621
     24  O         17.3420    8.4870   56.2230 O.2   133  ASN133     -0.2715
     25  CB        15.3290    8.1690   58.0770 C.3   133  ASN133      0.1195
     26  CG        16.1540    9.3370   58.5790 C.2   133  ASN133      0.2630
     27  OD1       15.8110   10.4960   58.3560 O.2   133  ASN133     -0.2716
     28  ND2       17.2440    9.0330   59.2760 N.am  133  ASN133     -0.0877
     29  N         16.0030    8.2000   54.4170 N.am  134  GLU134     -0.1977
     30  CA        17.0310    8.1630   53.3630 C.3   134  GLU134      0.1602
     31  C         17.8180    6.9090   53.4340 C.2   134  GLU134      0.2287
     32  O         18.8090    6.7760   52.7270 O.2   134  GLU134     -0.2864
     33  CB        18.0410    9.3150   53.4230 C.3   134  GLU134      0.0415
     34  CG        19.3490    9.0890   54.2080 C.3   134  GLU134      0.1163
     35  CD        20.4720   10.0470   53.7780 C.2   134  GLU134      0.3649
     36  OE1       21.5970    9.5710   53.5010 O.co2 134  GLU134     -0.2457
     37  OE2       20.2170   11.2680   53.7080 O.co2 134  GLU134     -0.2457
     38  N         23.2510    2.9550   45.8470 N.3   149  LEU149     -0.1245
     39  CA        22.6300    2.7380   44.5460 C.3   149  LEU149      0.1561
     40  C         23.6330    2.9160   43.4180 C.2   149  LEU149      0.2260
     41  O         23.7750    4.0110   42.8880 O.2   149  LEU149     -0.2867
     42  CB        21.4690    3.7230   44.3430 C.3   149  LEU149      0.0270
     43  CG        20.3630    3.7920   45.4070 C.3   149  LEU149      0.0019
     44  CD1       20.9520    4.0970   46.7800 C.3   149  LEU149      0.0001
     45  CD2       19.3700    4.8700   45.0230 C.3   149  LEU149      0.0001
     46  N          5.7330    5.7060   57.5740 N.3   199  ARG199     -0.1245
     47  CA         6.7420    6.6760   57.1600 C.3   199  ARG199      0.1563
     48  C          7.8670    6.0980   56.3080 C.2   199  ARG199      0.2260
     49  O          8.8900    6.7460   56.1080 O.2   199  ARG199     -0.2867
     50  CB         7.3310    7.3640   58.4000 C.3   199  ARG199      0.0307
     51  CG         6.2850    8.0510   59.2720 C.3   199  ARG199      0.0489
     52  CD         6.8230    8.3720   60.6640 C.3   199  ARG199      0.2205
     53  NE         7.9170    9.3390   60.6390 N.pl3 199  ARG199     -0.0865
     54  CZ         8.5770    9.7520   61.7170 C.cat 199  ARG199      0.5346
     55  NH1        8.2570    9.2800   62.9150 N.pl3 199  ARG199      0.1354
     56  NH2        9.5560   10.6380   61.5990 N.pl3 199  ARG199      0.1354
     57  N          8.9380    3.3970   52.7050 N.3   201  HIS201     -0.1241
     58  CA         8.5330    2.7370   51.4740 C.3   201  HIS201      0.1621
     59  C          9.1010    1.3100   51.4710 C.2   201  HIS201      0.2264
     60  O         10.1640    1.0430   52.0380 O.2   201  HIS201     -0.2867
     61  CB         9.1000    3.4690   50.2550 C.3   201  HIS201      0.0745
     62  CG         8.7950    4.9320   50.2250 C.ar  201  HIS201      0.0817
     63  ND1        9.7660    5.8980   50.3960 N.ar  201  HIS201     -0.2268
     64  CD2        7.6320    5.5970   50.0300 C.ar  201  HIS201      0.1154
     65  CE1        9.2110    7.0930   50.3050 C.ar  201  HIS201      0.1986
     66  NE2        7.9180    6.9390   50.0840 N.ar  201  HIS201     -0.2212
     67  N          8.1910   14.3940   53.6830 N.3   242  ASN242     -0.1225
     68  CA         8.9500   13.1650   53.4600 C.3   242  ASN242      0.1785
     69  C          9.6730   13.4730   52.1500 C.2   242  ASN242      0.2597
     70  O          9.0350   13.6120   51.1030 O.2   242  ASN242     -0.2718
     71  CB         7.9910   11.9810   53.2740 C.3   242  ASN242      0.1169
     72  CG         8.7130   10.6620   53.0260 C.2   242  ASN242      0.2627
     73  OD1        8.6860    9.7550   53.8610 O.2   242  ASN242     -0.2716
     74  ND2        9.3530   10.5480   51.8680 N.am  242  ASN242     -0.0877
     75  N         10.9940   13.5840   52.2000 N.am  243  ARG243     -0.1966
     76  CA        11.7480   13.9420   51.0080 C.3   243  ARG243      0.1729
     77  C         11.4120   13.1910   49.7250 C.2   243  ARG243      0.2616
     78  O         11.2140   13.8140   48.6790 O.2   243  ARG243     -0.2715
     79  CB        13.2640   13.8300   51.2350 C.3   243  ARG243      0.0348
     80  CG        14.0150   14.4970   50.1000 C.3   243  ARG243      0.0492
     81  CD        15.3530   13.8850   49.7490 C.3   243  ARG243      0.2205
     82  NE        16.4210   14.4050   50.5810 N.pl3 243  ARG243     -0.0865
     83  CZ        17.6880   14.5090   50.2000 C.cat 243  ARG243      0.5346
     84  NH1       18.0660   14.1360   48.9840 N.pl3 243  ARG243      0.1354
     85  NH2       18.5900   14.9760   51.0520 N.pl3 243  ARG243      0.1354
     86  N         11.3500   11.8600   49.8160 N.am  244  SER244     -0.1950
     87  CA        11.0610   10.9970   48.6660 C.3   244  SER244      0.1924
     88  C          9.7100   11.2520   48.0120 C.2   244  SER244      0.2314
     89  O          9.6050   11.3170   46.7870 O.2   244  SER244     -0.2863
     90  CB        11.1380    9.5190   49.0660 C.3   244  SER244      0.2116
     91  OG        12.4610    9.0130   48.9840 O.3   244  SER244     -0.2180
     92  N         17.7990   12.1100   41.0530 N.3   267  ARG267     -0.1245
     93  CA        18.7860   11.9290   42.1160 C.3   267  ARG267      0.1563
     94  C         18.5590   12.6060   43.4580 C.2   267  ARG267      0.2260
     95  O         19.3120   12.3490   44.4000 O.2   267  ARG267     -0.2867
     96  CB        20.1810   12.2960   41.6080 C.3   267  ARG267      0.0307
     97  CG        20.7160   11.3660   40.5310 C.3   267  ARG267      0.0489
     98  CD        22.1820   11.6550   40.2070 C.3   267  ARG267      0.2205
     99  NE        22.7070   10.7330   39.1990 N.pl3 267  ARG267     -0.0865
    100  CZ        23.9720   10.7060   38.7900 C.cat 267  ARG267      0.5346
    101  NH1       24.8550   11.5540   39.3000 N.pl3 267  ARG267      0.1354
    102  NH2       24.3530    9.8270   37.8740 N.pl3 267  ARG267      0.1354
    103  N         16.4570   11.9610   45.5530 N.3   269  SER269     -0.1202
    104  CA        15.8850   10.9830   46.4720 C.3   269  SER269      0.2020
    105  C         16.2980    9.5470   46.0700 C.2   269  SER269      0.2618
    106  O         16.5640    9.2670   44.8990 O.2   269  SER269     -0.2717
    107  CB        14.3520   11.1140   46.5290 C.3   269  SER269      0.2103
    108  OG        13.7050   10.1160   45.7510 O.3   269  SER269     -0.2182
    109  N         16.3570    8.6460   47.0510 N.am  270  LYS270     -0.1979
    110  CA        16.7440    7.2470   46.8340 C.3   270  LYS270      0.1596
    111  C         15.6370    6.5820   46.0260 C.2   270  LYS270      0.2287
    112  O         15.9080    5.9080   45.0330 O.2   270  LYS270     -0.2864
    113  CB        16.8810    6.4970   48.1690 C.3   270  LYS270      0.0298
    114  CG        17.9440    6.9880   49.1730 C.3   270  LYS270      0.0038
    115  CD        19.3760    6.7840   48.6870 C.3   270  LYS270      0.0206
    116  CE        20.3550    6.6230   49.8600 C.3   270  LYS270      0.1093
    117  NZ        20.4600    7.8380   50.7090 N.3   270  LYS270     -0.1314
    118  N         15.6590    7.4800   42.4450 N.3   273  ARG273     -0.1245
    119  CA        16.8560    7.0690   41.7340 C.3   273  ARG273      0.1563
    120  C         16.6720    5.5770   41.4760 C.2   273  ARG273      0.2260
    121  O         16.8430    5.0980   40.3610 O.2   273  ARG273     -0.2867
    122  CB        18.1040    7.3150   42.5820 C.3   273  ARG273      0.0307
    123  CG        19.3990    6.8130   41.9470 C.3   273  ARG273      0.0489
    124  CD        20.4190    7.9270   41.8660 C.3   273  ARG273      0.2205
    125  NE        21.6980    7.5800   42.4780 N.pl3 273  ARG273     -0.0865
    126  CZ        22.7130    7.0120   41.8330 C.cat 273  ARG273      0.5346
    127  NH1       22.6050    6.7110   40.5420 N.pl3 273  ARG273      0.1354
    128  NH2       23.8460    6.7660   42.4790 N.pl3 273  ARG273      0.1354
@<TRIPOS>BOND
     1   102   100    1
     2   100    99    2
     3   100   101    1
     4    99    98    1
     5    98    97    1
     6   121   120    2
     7    97    96    1
     8   127   126    1
     9    92    93    1
    10   120   119    1
    11    96    93    1
    12   119   118    1
    13   119   122    1
    14   126   125    2
    15   126   128    1
    16   124   123    1
    17   124   125    1
    18   123   122    1
    19    93    94    1
    20    41    40    2
    21    40    39    1
    22    94    95    2
    23    42    39    1
    24    42    43    1
    25    39    38    1
    26   106   105    2
    27    45    43    1
    28   112   111    2
    29    43    44    1
    30   103   104    1
    31   108   107    1
    32   111   110    1
    33   105   104    1
    34   105   109   am
    35   104   107    1
    36    89    88    2
    37   110   109    1
    38   110   113    1
    39    88    87    1
    40   113   114    1
    41     8     6    1
    42    87    90    1
    43    87    86    1
    44    78    77    2
    45   115   114    1
    46   115   116    1
    47    91    90    1
    48    84    83    1
    49    77    86   am
    50    77    76    1
    51    81    80    1
    52    81    82    1
    53   116   117    1
    54     6     5    1
    55    64    66   ar
    56    64    62   ar
    57    66    65   ar
    58    80    79    1
    59    83    82    2
    60    83    85    1
    61    62    61    1
    62    62    63   ar
    63    61    58    1
    64    65    63   ar
    65    76    79    1
    66    76    75    1
    67     7     5    1
    68    70    69    2
    69     5     2    1
    70    59    58    1
    71    59    60    2
    72    58    57    1
    73    74    72   am
    74    69    75   am
    75    69    68    1
    76     2     1    1
    77     2     3    1
    78    32    31    2
    79    72    71    1
    80    72    73    2
    81    71    68    1
    82    30    33    1
    83    30    31    1
    84    30    29    1
    85    33    34    1
    86    68    67    1
    87    36    35   ar
    88     3     4    2
    89     3     9   am
    90    37    35   ar
    91    35    34    1
    92    29    23   am
    93     9    10    1
    94    10    11    1
    95    10    13    1
    96    23    24    2
    97    23    22    1
    98    11    12    2
    99    11    21   am
   100    49    48    2
   101    21    22    1
   102    48    47    1
   103    22    25    1
   104    13    14    1
   105    47    46    1
   106    47    50    1
   107    15    14   ar
   108    15    17   ar
   109    25    26    1
   110    14    16   ar
   111    27    26    2
   112    50    51    1
   113    26    28   am
   114    17    19   ar
   115    51    52    1
   116    16    18   ar
   117    19    18   ar
   118    19    20    1
   119    53    52    1
   120    53    54    2
   121    56    54    1
   122    54    55    1
