@<TRIPOS>MOLECULE
tmp/1t5cA00.pdb
 112 109 0 0 0
SMALL
GASTEIGER

@<TRIPOS>ATOM
      1  N         -8.9380    3.6500   44.0300 N.3     9  ARG9       -0.1231
      2  CA        -9.6930    2.6580   44.7760 C.3     9  ARG9        0.1694
      3  C        -10.1810    3.4160   45.9760 C.2     9  ARG9        0.2592
      4  O         -9.4180    4.1440   46.6050 O.2     9  ARG9       -0.2718
      5  CB        -8.8310    1.4740   45.2360 C.3     9  ARG9        0.0321
      6  CG        -9.6320    0.4950   46.1010 C.3     9  ARG9        0.0489
      7  CD        -8.8980   -0.7980   46.4040 C.3     9  ARG9        0.2205
      8  NE        -9.8200   -1.8120   46.9300 N.pl3   9  ARG9       -0.0865
      9  CZ        -9.4730   -3.0550   47.2640 C.cat   9  ARG9        0.5346
     10  NH1       -8.2170   -3.4680   47.1450 N.pl3   9  ARG9        0.1354
     11  NH2      -10.3900   -3.8980   47.7000 N.pl3   9  ARG9        0.1354
     12  N        -11.4540    3.2620   46.2940 N.am   10  VAL10      -0.1966
     13  CA       -12.0160    3.9800   47.4210 C.3    10  VAL10       0.1727
     14  C        -12.2220    3.0370   48.5870 C.2    10  VAL10       0.2616
     15  O        -12.8210    1.9730   48.4350 O.2    10  VAL10      -0.2715
     16  CB       -13.3590    4.6020   47.0370 C.3    10  VAL10       0.0290
     17  CG1      -13.8320    5.5250   48.1310 C.3    10  VAL10       0.0023
     18  CG2      -13.2190    5.3350   45.7060 C.3    10  VAL10       0.0023
     19  N        -11.7120    3.4200   49.7500 N.am   11  ARG11      -0.1964
     20  CA       -11.8660    2.5900   50.9430 C.3    11  ARG11       0.1714
     21  C        -13.3370    2.6130   51.3700 C.2    11  ARG11       0.2458
     22  O        -13.9550    3.6700   51.4570 O.2    11  ARG11      -0.2730
     23  CB       -10.9860    3.1120   52.0900 C.3    11  ARG11       0.0347
     24  CG       -11.1590    2.3070   53.3930 C.3    11  ARG11       0.0492
     25  CD       -10.4760    2.9430   54.6110 C.3    11  ARG11       0.2205
     26  NE       -10.6260    2.1110   55.8090 N.pl3  11  ARG11      -0.0865
     27  CZ       -10.1370    2.4160   57.0080 C.cat  11  ARG11       0.5346
     28  NH1       -9.4590    3.5410   57.1820 N.pl3  11  ARG11       0.1354
     29  NH2      -10.3280    1.5960   58.0310 N.pl3  11  ARG11       0.1354
     30  N        -13.9240    1.4350   51.6190 N.am   12  PRO12      -0.2727
     31  CA       -15.3300    1.3610   52.0410 C.3    12  PRO12       0.1402
     32  C        -15.5180    2.0660   53.3840 C.2    12  PRO12       0.2269
     33  O        -14.5670    2.2280   54.1460 O.2    12  PRO12      -0.2865
     34  CB       -15.5950   -0.1320   52.1990 C.3    12  PRO12       0.0296
     35  CG       -14.4700   -0.8210   51.4990 C.3    12  PRO12       0.0237
     36  CD       -13.3040    0.1050   51.4970 C.3    12  PRO12       0.0939
     37  N        -15.9920    1.1320   46.9490 N.3    52  GLY52      -0.1225
     38  CA       -15.8600    0.3600   48.1760 C.3    52  GLY52       0.1811
     39  C        -16.3200   -1.0810   48.1720 C.2    52  GLY52       0.2280
     40  O        -15.8990   -1.8630   49.0170 O.2    52  GLY52      -0.2866
     41  N        -16.0810   -3.2180   45.3570 N.3    54  GLU54      -0.1245
     42  CA       -15.1950   -4.0240   44.5360 C.3    54  GLU54       0.1567
     43  C        -14.0230   -4.6110   45.3470 C.2    54  GLU54       0.2260
     44  O        -13.4600   -3.9460   46.2160 O.2    54  GLU54      -0.2867
     45  CB       -14.7310   -3.1790   43.3400 C.3    54  GLU54       0.0388
     46  CG       -15.9050   -2.7920   42.4240 C.3    54  GLU54       0.1160
     47  CD       -15.5240   -1.8320   41.2960 C.2    54  GLU54       0.3649
     48  OE1      -15.3230   -0.6350   41.5850 O.co2  54  GLU54      -0.2457
     49  OE2      -15.4250   -2.2770   40.1310 O.co2  54  GLU54      -0.2457
     50  N         -2.1640    7.6500   54.7820 N.3    85  THR85      -0.1203
     51  CA        -2.0540    6.5880   55.7640 C.3    85  THR85       0.1994
     52  C         -3.4680    6.1180   56.0840 C.2    85  THR85       0.2618
     53  O         -4.3640    6.9340   56.2730 O.2    85  THR85      -0.2717
     54  CB        -1.3650    7.0980   57.0640 C.3    85  THR85       0.1784
     55  OG1        0.0100    7.3730   56.7900 O.3    85  THR85      -0.2211
     56  CG2       -1.4370    6.0610   58.1720 C.3    85  THR85       0.0376
     57  N         -3.6590    4.8030   56.1260 N.am   86  ALA86      -0.1965
     58  CA        -4.9560    4.1980   56.4230 C.3    86  ALA86       0.1728
     59  C         -5.9840    4.2690   55.2880 C.2    86  ALA86       0.2617
     60  O         -7.1770    4.1030   55.5250 O.2    86  ALA86      -0.2715
     61  CB        -5.5400    4.8030   57.7050 C.3    86  ALA86       0.0334
     62  N         -5.5320    4.5080   54.0610 N.am   87  SER87      -0.1936
     63  CA        -6.4530    4.5630   52.9260 C.3    87  SER87       0.2055
     64  C         -6.5820    3.2070   52.2430 C.2    87  SER87       0.2644
     65  O         -7.4400    3.0280   51.3910 O.2    87  SER87      -0.2714
     66  CB        -6.0030    5.6090   51.9000 C.3    87  SER87       0.2130
     67  OG        -4.6920    5.3470   51.4450 O.3    87  SER87      -0.2179
     68  N         -5.7140    2.2610   52.5980 N.am   88  GLY88      -0.1939
     69  CA        -5.7890    0.9300   52.0120 C.3    88  GLY88       0.2014
     70  C         -4.6190    0.4420   51.1670 C.2    88  GLY88       0.2639
     71  O         -4.7330   -0.5630   50.4510 O.2    88  GLY88      -0.2714
     72  N         -3.4840    1.1260   51.2640 N.am   89  LYS89      -0.1963
     73  CA        -2.3050    0.7640   50.4810 C.3    89  LYS89       0.1728
     74  C         -1.7840   -0.6430   50.7350 C.2    89  LYS89       0.2617
     75  O         -1.5700   -1.4190   49.7950 O.2    89  LYS89      -0.2715
     76  CB        -1.1680    1.7680   50.7270 C.3    89  LYS89       0.0311
     77  CG        -1.4500    3.1660   50.2020 C.3    89  LYS89       0.0038
     78  CD        -0.1740    4.0030   50.1040 C.3    89  LYS89       0.0206
     79  CE         0.4850    4.1990   51.4800 C.3    89  LYS89       0.1093
     80  NZ        -0.4550    4.7560   52.5000 N.3    89  LYS89      -0.1314
     81  N         -1.5620   -0.9610   52.0050 N.am   90  THR90      -0.1937
     82  CA        -1.0450   -2.2690   52.3830 C.3    90  THR90       0.2028
     83  C         -2.1200   -3.3300   52.2120 C.2    90  THR90       0.2642
     84  O         -1.8240   -4.4590   51.8060 O.2    90  THR90      -0.2714
     85  CB        -0.5030   -2.2370   53.8280 C.3    90  THR90       0.1808
     86  OG1        0.6880   -1.4440   53.8520 O.3    90  THR90      -0.2208
     87  CG2       -0.1550   -3.6160   54.3140 C.3    90  THR90       0.0379
     88  N         -3.3690   -2.9620   52.4970 N.am   91  TYR91      -0.1959
     89  CA        -4.4910   -3.8840   52.3240 C.3    91  TYR91       0.1771
     90  C         -4.5240   -4.3250   50.8590 C.2    91  TYR91       0.2620
     91  O         -4.6990   -5.5070   50.5660 O.2    91  TYR91      -0.2715
     92  CB        -5.8230   -3.2060   52.6970 C.3    91  TYR91       0.0574
     93  CG        -7.0640   -4.0490   52.4240 C.ar   91  TYR91      -0.0198
     94  CD1       -7.5860   -4.1730   51.1280 C.ar   91  TYR91      -0.0009
     95  CD2       -7.6990   -4.7470   53.4560 C.ar   91  TYR91      -0.0009
     96  CE1       -8.7050   -4.9720   50.8730 C.ar   91  TYR91       0.0417
     97  CE2       -8.8190   -5.5490   53.2120 C.ar   91  TYR91       0.0417
     98  CZ        -9.3150   -5.6580   51.9210 C.ar   91  TYR91       0.1957
     99  OH       -10.4120   -6.4610   51.6830 O.3    91  TYR91      -0.2866
    100  N         -4.3420   -3.3720   49.9460 N.am   92  THR92      -0.1951
    101  CA        -4.3530   -3.6650   48.5100 C.3    92  THR92       0.1897
    102  C         -3.0950   -4.3920   48.0330 C.2    92  THR92       0.2313
    103  O         -3.1760   -5.3040   47.2010 O.2    92  THR92      -0.2863
    104  CB        -4.4900   -2.3670   47.6660 C.3    92  THR92       0.1794
    105  OG1       -5.7630   -1.7580   47.9090 O.3    92  THR92      -0.2208
    106  CG2       -4.3660   -2.6750   46.1840 C.3    92  THR92       0.0378
    107  N          4.1820    3.7000   58.4120 N.3   198  SER198     -0.1217
    108  CA         3.4940    4.7650   57.7110 C.3   198  SER198      0.1889
    109  C          4.4660    5.8150   57.1830 C.2   198  SER198      0.2288
    110  O          4.0760    6.7010   56.4240 O.2   198  SER198     -0.2866
    111  CB         2.4890    5.4380   58.6430 C.3   198  SER198      0.2089
    112  OG         3.1420    6.3620   59.4960 O.3   198  SER198     -0.2183
@<TRIPOS>BOND
     1    49    47   ar
     2    47    48   ar
     3    47    46    1
     4    46    45    1
     5    45    42    1
     6     1     2    1
     7    42    43    1
     8    42    41    1
     9     2     5    1
    10     2     3    1
    11     5     6    1
    12    43    44    2
    13    18    16    1
    14     3    12   am
    15     3     4    2
    16     6     7    1
    17   106   104    1
    18    12    13    1
    19     7     8    1
    20     8     9    2
    21    37    38    1
    22    16    13    1
    23    16    17    1
    24    10     9    1
    25   103   102    2
    26     9    11    1
    27    13    14    1
    28   104   105    1
    29   104   101    1
    30   102   101    1
    31    39    38    1
    32    39    40    2
    33    15    14    2
    34   101   100    1
    35    14    19   am
    36    19    20    1
    37    75    74    2
    38   100    90   am
    39    78    77    1
    40    78    79    1
    41    77    76    1
    42    71    70    2
    43    73    76    1
    44    73    74    1
    45    73    72    1
    46    91    90    2
    47    74    81   am
    48    90    89    1
    49    96    94   ar
    50    96    98   ar
    51    20    21    1
    52    20    23    1
    53    94    93   ar
    54    70    72   am
    55    70    69    1
    56    21    22    2
    57    21    30   am
    58    65    64    2
    59    67    66    1
    60    79    80    1
    61    36    35    1
    62    36    30    1
    63    35    34    1
    64    30    31    1
    65    99    98    1
    66    84    83    2
    67    66    63    1
    68    98    97   ar
    69    81    82    1
    70    69    68    1
    71    31    34    1
    72    31    32    1
    73    23    24    1
    74    83    82    1
    75    83    88   am
    76    64    68   am
    77    64    63    1
    78    89    88    1
    79    89    92    1
    80    82    85    1
    81    93    92    1
    82    93    95   ar
    83    63    62    1
    84    97    95   ar
    85    32    33    2
    86    24    25    1
    87    85    86    1
    88    85    87    1
    89    62    59   am
    90    25    26    1
    91    50    51    1
    92    59    60    2
    93    59    58    1
    94    51    52    1
    95    51    54    1
    96    26    27    2
    97    52    57   am
    98    52    53    2
    99    57    58    1
   100    58    61    1
   101   110   109    2
   102    55    54    1
   103    27    28    1
   104    27    29    1
   105    54    56    1
   106   109   108    1
   107   108   107    1
   108   108   111    1
   109   111   112    1
