@<TRIPOS>MOLECULE
tmp/1t5fC00.pdb
 137 124 0 0 0
SMALL
GASTEIGER

@<TRIPOS>ATOM
      1  N         92.3760    6.8590   -4.3260 N.3    96  HIS96      -0.1241
      2  CA        92.5870    6.8910   -2.8850 C.3    96  HIS96       0.1621
      3  C         93.4030    5.7550   -2.2290 C.2    96  HIS96       0.2264
      4  O         93.7180    5.8310   -1.0450 O.2    96  HIS96      -0.2867
      5  CB        91.2440    7.0880   -2.1550 C.3    96  HIS96       0.0745
      6  CG        91.3260    8.0480   -1.0090 C.ar   96  HIS96       0.0817
      7  ND1       90.2150    8.6090   -0.4220 N.ar   96  HIS96      -0.2268
      8  CD2       92.3990    8.5480   -0.3490 C.ar   96  HIS96       0.1154
      9  CE1       90.5960    9.4220    0.5490 C.ar   96  HIS96       0.1986
     10  NE2       91.9140    9.4010    0.6120 N.ar   96  HIS96      -0.2212
     11  N         85.4940   12.4100    2.7720 N.3   119  ASP119     -0.1239
     12  CA        85.0980   11.4930    1.7330 C.3   119  ASP119      0.1674
     13  C         83.6120   11.1610    1.8790 C.2   119  ASP119      0.2266
     14  O         83.0450   11.2590    2.9650 O.2   119  ASP119     -0.2867
     15  CB        85.9290   10.2390    1.9850 C.3   119  ASP119      0.1410
     16  CG        86.0670    9.3530    0.7820 C.2   119  ASP119      0.3668
     17  OD1       85.1140    9.2730   -0.0150 O.co2 119  ASP119     -0.2456
     18  OD2       87.1390    8.7120    0.6630 O.co2 119  ASP119     -0.2456
     19  N         82.7860    8.2370    1.2380 N.3   121  HIS121     -0.1241
     20  CA        83.0010    6.8420    1.6220 C.3   121  HIS121      0.1621
     21  C         83.9730    6.6550    2.8010 C.2   121  HIS121      0.2264
     22  O         84.8560    7.4860    3.0410 O.2   121  HIS121     -0.2867
     23  CB        83.5520    6.0550    0.4260 C.3   121  HIS121      0.0745
     24  CG        82.8630    6.3680   -0.8640 C.ar  121  HIS121      0.0817
     25  ND1       83.3570    7.2800   -1.7730 N.ar  121  HIS121     -0.2268
     26  CD2       81.6810    5.9430   -1.3650 C.ar  121  HIS121      0.1154
     27  CE1       82.5070    7.4050   -2.7750 C.ar  121  HIS121      0.1986
     28  NE2       81.4800    6.6040   -2.5510 N.ar  121  HIS121     -0.2212
     29  N         85.9400    3.9890    2.9150 N.3   123  ASP123     -0.1239
     30  CA        87.0960    3.3050    2.3210 C.3   123  ASP123      0.1674
     31  C         87.7590    2.3630    3.3190 C.2   123  ASP123      0.2266
     32  O         88.9910    2.2470    3.3430 O.2   123  ASP123     -0.2867
     33  CB        88.1420    4.3110    1.8680 C.3   123  ASP123      0.1410
     34  CG        87.6520    5.1720    0.7390 C.2   123  ASP123      0.3668
     35  OD1       86.5040    4.9790    0.3200 O.co2 123  ASP123     -0.2456
     36  OD2       88.4080    6.0470    0.2790 O.co2 123  ASP123     -0.2456
     37  N         86.8160   -1.0760    3.6940 N.3   125  ASN125     -0.1240
     38  CA        86.4770   -2.4550    3.3850 C.3   125  ASN125      0.1653
     39  C         87.7560   -3.2520    3.5400 C.2   125  ASN125      0.2266
     40  O         88.8500   -2.7790    3.1990 O.2   125  ASN125     -0.2867
     41  CB        85.9920   -2.6110    1.9370 C.3   125  ASN125      0.1155
     42  CG        84.4760   -2.5580    1.8120 C.2   125  ASN125      0.2627
     43  OD1       83.7530   -3.2720    2.5050 O.2   125  ASN125     -0.2716
     44  ND2       83.9910   -1.7170    0.9140 N.am  125  ASN125     -0.0877
     45  N         85.0110   -6.6110    0.8190 N.3   130  THR130     -0.1203
     46  CA        84.7570   -5.9510   -0.4620 C.3   130  THR130      0.1994
     47  C         83.8540   -6.7290   -1.4050 C.2   130  THR130      0.2619
     48  O         83.9730   -7.9470   -1.5170 O.2   130  THR130     -0.2717
     49  CB        86.0400   -5.6900   -1.2570 C.3   130  THR130      0.1784
     50  OG1       87.1040   -6.5190   -0.7730 O.3   130  THR130     -0.2211
     51  CG2       86.4090   -4.2700   -1.1610 C.3   130  THR130      0.0376
     52  N         82.9710   -6.0080   -2.0960 N.am  131  SER131     -0.1937
     53  CA        82.0530   -6.6130   -3.0650 C.3   131  SER131      0.2055
     54  C         82.7810   -6.6300   -4.4020 C.2   131  SER131      0.2643
     55  O         82.4620   -7.4040   -5.3040 O.2   131  SER131     -0.2714
     56  CB        80.7790   -5.7800   -3.1870 C.3   131  SER131      0.2130
     57  OG        80.2080   -5.5630   -1.9120 O.3   131  SER131     -0.2179
     58  N         83.7570   -5.7400   -4.5080 N.am  132  SER132     -0.1949
     59  CA        84.6060   -5.5990   -5.6840 C.3   132  SER132      0.1924
     60  C         86.0100   -5.7190   -5.1090 C.2   132  SER132      0.2314
     61  O         86.2280   -5.3950   -3.9440 O.2   132  SER132     -0.2863
     62  CB        84.4460   -4.2060   -6.2870 C.3   132  SER132      0.2116
     63  OG        84.9110   -3.2240   -5.3670 O.3   132  SER132     -0.2180
     64  N         88.3640   -3.8600   -5.5910 N.3   134  ASN134     -0.1240
     65  CA        88.9990   -2.5520   -5.6660 C.3   134  ASN134      0.1653
     66  C         89.6400   -2.0050   -4.3800 C.2   134  ASN134      0.2266
     67  O         88.9710   -1.7580   -3.3810 O.2   134  ASN134     -0.2867
     68  CB        88.0060   -1.5470   -6.2690 C.3   134  ASN134      0.1155
     69  CG        87.5200   -1.9840   -7.6440 C.2   134  ASN134      0.2627
     70  OD1       88.2920   -2.5470   -8.4270 O.2   134  ASN134     -0.2716
     71  ND2       86.2450   -1.7280   -7.9460 N.am  134  ASN134     -0.0877
     72  N         90.9850    0.9820   -3.7930 N.3   136  ALA136     -0.1231
     73  CA        90.7520    2.3830   -3.4650 C.3   136  ALA136      0.1694
     74  C         89.6800    2.4670   -2.3670 C.2   136  ALA136      0.2592
     75  O         89.5640    3.4890   -1.6880 O.2   136  ALA136     -0.2718
     76  CB        90.3120    3.1630   -4.7160 C.3   136  ALA136      0.0304
     77  N         88.9110    1.3890   -2.2020 N.am  137  GLY137     -0.1957
     78  CA        87.8720    1.3580   -1.1870 C.3   137  GLY137      0.1869
     79  C         88.3200    0.6230    0.0720 C.2   137  GLY137      0.2309
     80  O         87.4990    0.2950    0.9310 O.2   137  GLY137     -0.2863
     81  N         77.8030    7.1510    1.7310 N.3   176  ASP176     -0.1239
     82  CA        77.7520    5.9110    0.9340 C.3   176  ASP176      0.1674
     83  C         78.6360    4.8470    1.5920 C.2   176  ASP176      0.2266
     84  O         79.7650    4.6240    1.1820 O.2   176  ASP176     -0.2867
     85  CB        78.2100    6.1890   -0.5180 C.3   176  ASP176      0.1410
     86  CG        77.9940    4.9990   -1.4520 C.2   176  ASP176      0.3668
     87  OD1       77.1080    4.1790   -1.1610 O.co2 176  ASP176     -0.2456
     88  OD2       78.6750    4.9000   -2.5020 O.co2 176  ASP176     -0.2456
     89  N         79.0620    0.8130    2.8660 N.3   178  ASP178     -0.1239
     90  CA        78.5770   -0.5670    2.7190 C.3   178  ASP178      0.1674
     91  C         78.2160   -1.1210    4.0850 C.2   178  ASP178      0.2266
     92  O         78.6910   -0.6130    5.1030 O.2   178  ASP178     -0.2867
     93  CB        79.6420   -1.4830    2.1060 C.3   178  ASP178      0.1410
     94  CG        79.9070   -1.1790    0.6520 C.2   178  ASP178      0.3668
     95  OD1       78.9570   -0.8220   -0.0750 O.co2 178  ASP178     -0.2456
     96  OD2       81.0700   -1.3080    0.2280 O.co2 178  ASP178     -0.2456
     97  N         81.3510   -2.1050    6.1260 N.3   181  GLU181     -0.1245
     98  CA        82.1020   -0.9410    6.6010 C.3   181  GLU181      0.1567
     99  C         81.3980   -0.3120    7.7820 C.2   181  GLU181      0.2260
    100  O         82.0210    0.0810    8.7580 O.2   181  GLU181     -0.2867
    101  CB        82.2150    0.1120    5.5040 C.3   181  GLU181      0.0388
    102  CG        83.0020   -0.3320    4.3030 C.3   181  GLU181      0.1160
    103  CD        83.0770    0.7540    3.2530 C.2   181  GLU181      0.3649
    104  OE1       82.0620    0.9610    2.5590 O.co2 181  GLU181     -0.2457
    105  OE2       84.1410    1.4120    3.1330 O.co2 181  GLU181     -0.2457
    106  N         89.3020   13.2540   -0.3420 N.3   227  ASP227     -0.1239
    107  CA        88.7550   12.6180   -1.5390 C.3   227  ASP227      0.1674
    108  C         87.7750   13.6550   -2.1010 C.2   227  ASP227      0.2266
    109  O         86.8150   14.0750   -1.4500 O.2   227  ASP227     -0.2867
    110  CB        88.0100   11.3290   -1.1940 C.3   227  ASP227      0.1410
    111  CG        87.4410   10.6120   -2.4320 C.2   227  ASP227      0.3668
    112  OD1       87.1640   11.2760   -3.4500 O.co2 227  ASP227     -0.2456
    113  OD2       87.2320    9.3790   -2.3800 O.co2 227  ASP227     -0.2456
    114  N         85.3500   13.3920   -4.0190 N.3   229  ASP229     -0.1239
    115  CA        83.9260   13.0350   -4.0700 C.3   229  ASP229      0.1674
    116  C         83.2360   13.3050   -2.7220 C.2   229  ASP229      0.2266
    117  O         82.0470   13.0130   -2.5350 O.2   229  ASP229     -0.2867
    118  CB        83.7130   11.5640   -4.5220 C.3   229  ASP229      0.1410
    119  CG        84.2420   10.5230   -3.5200 C.2   229  ASP229      0.3668
    120  OD1       84.2780   10.7810   -2.3010 O.co2 229  ASP229     -0.2456
    121  OD2       84.5950    9.4130   -3.9660 O.co2 229  ASP229     -0.2456
    122  N         83.4230    7.8770   -8.2360 N.3   241  THR241     -0.1218
    123  CA        82.2460    7.4660   -7.4780 C.3   241  THR241      0.1862
    124  C         81.4880    8.6310   -6.8590 C.2   241  THR241      0.2287
    125  O         81.4860    8.7950   -5.6320 O.2   241  THR241     -0.2866
    126  CB        82.6400    6.5020   -6.3370 C.3   241  THR241      0.1770
    127  OG1       83.5860    5.5570   -6.8410 O.3   241  THR241     -0.2211
    128  CG2       81.4480    5.7260   -5.8180 C.3   241  THR241      0.0375
    129  N         91.3900   11.3180   -6.0800 N.3   272  GLU272     -0.1245
    130  CA        90.2830   10.9820   -6.9510 C.3   272  GLU272      0.1567
    131  C         89.8340   11.9860   -8.0280 C.2   272  GLU272      0.2260
    132  O         88.7140   11.9150   -8.5060 O.2   272  GLU272     -0.2867
    133  CB        89.0980   10.5250   -6.0920 C.3   272  GLU272      0.0388
    134  CG        89.4440    9.3280   -5.1920 C.3   272  GLU272      0.1160
    135  CD        89.5190    8.0070   -5.9180 C.2   272  GLU272      0.3649
    136  OE1       89.5040    8.0190   -7.1760 O.co2 272  GLU272     -0.2457
    137  OE2       89.5940    6.9690   -5.2210 O.co2 272  GLU272     -0.2457
@<TRIPOS>BOND
     1   132   131    2
     2    70    69    2
     3   122   123    1
     4   131   130    1
     5    71    69   am
     6    69    68    1
     7   123   124    1
     8   123   126    1
     9   136   135   ar
    10   130   133    1
    11   130   129    1
    12   124   125    2
    13   127   126    1
    14   126   128    1
    15    62    59    1
    16    62    63    1
    17    68    65    1
    18   133   134    1
    19   135   137   ar
    20   135   134    1
    21    59    60    1
    22    59    58    1
    23    65    64    1
    24    65    66    1
    25    55    54    2
    26    60    61    2
    27    76    73    1
    28   118   115    1
    29   118   119    1
    30    58    54   am
    31    54    53    1
    32    66    67    2
    33     1     2    1
    34   115   114    1
    35   115   116    1
    36   121   119   ar
    37    72    73    1
    38   119   120   ar
    39    73    74    1
    40   112   111   ar
    41    56    53    1
    42    56    57    1
    43    53    52    1
    44     2     3    1
    45     2     5    1
    46    27    28   ar
    47    27    25   ar
    48   116   117    2
    49    28    26   ar
    50    88    86   ar
    51   111   113   ar
    52   111   110    1
    53    74    77   am
    54    74    75    2
    55     3     4    2
    56    77    78    1
    57     5     6    1
    58   108   107    1
    59   108   109    2
    60    52    47   am
    61    25    24   ar
    62   107   110    1
    63   107   106    1
    64    48    47    2
    65    86    87   ar
    66    86    85    1
    67    47    46    1
    68    26    24   ar
    69    49    51    1
    70    49    50    1
    71    49    46    1
    72    78    79    1
    73     6     7   ar
    74     6     8   ar
    75    24    23    1
    76    85    82    1
    77    46    45    1
    78     7     9   ar
    79     8    10   ar
    80    95    94   ar
    81    17    16   ar
    82    79    80    2
    83    96    94   ar
    84    36    34   ar
    85    35    34   ar
    86    23    20    1
    87     9    10   ar
    88    94    93    1
    89    18    16   ar
    90    34    33    1
    91    16    15    1
    92    44    42   am
    93    82    83    1
    94    82    81    1
    95    84    83    2
    96    19    20    1
    97    20    21    1
    98    12    13    1
    99    12    15    1
   100    12    11    1
   101    42    41    1
   102    42    43    2
   103    33    30    1
   104    13    14    2
   105    41    38    1
   106    93    90    1
   107    30    29    1
   108    30    31    1
   109   104   103   ar
   110    90    89    1
   111    90    91    1
   112    21    22    2
   113   105   103   ar
   114    40    39    2
   115   103   102    1
   116    31    32    2
   117    38    39    1
   118    38    37    1
   119    91    92    2
   120   102   101    1
   121   101    98    1
   122    97    98    1
   123    98    99    1
   124    99   100    2
