@<TRIPOS>MOLECULE
tmp/1t5gC00.pdb
 135 122 0 0 0
SMALL
GASTEIGER

@<TRIPOS>ATOM
      1  N         91.0770    1.6860   -8.6680 N.3    14  CYS14      -0.1235
      2  CA        89.7360    1.6790   -9.2290 C.3    14  CYS14       0.1677
      3  C         89.8290    1.1920  -10.6710 C.2    14  CYS14       0.2270
      4  O         90.7760    1.5270  -11.3790 O.2    14  CYS14      -0.2867
      5  CB        89.1430    3.0870   -9.1840 C.3    14  CYS14       0.0956
      6  SG        90.0290    4.3200  -10.1680 S.3    14  CYS14      -0.0801
      7  N         92.2260    6.9940   -4.3480 N.3    96  HIS96      -0.1241
      8  CA        92.5040    7.1380   -2.9220 C.3    96  HIS96       0.1621
      9  C         93.3740    6.0650   -2.2730 C.2    96  HIS96       0.2264
     10  O         93.8170    6.2370   -1.1350 O.2    96  HIS96      -0.2867
     11  CB        91.1810    7.2710   -2.1570 C.3    96  HIS96       0.0745
     12  CG        91.2140    8.3020   -1.0710 C.ar   96  HIS96       0.0817
     13  ND1       90.0940    8.6630   -0.3560 N.ar   96  HIS96      -0.2268
     14  CD2       92.2300    9.0660   -0.6000 C.ar   96  HIS96       0.1154
     15  CE1       90.4160    9.6110    0.5100 C.ar   96  HIS96       0.1986
     16  NE2       91.7030    9.8720    0.3820 N.ar   96  HIS96      -0.2212
     17  N         82.7240    8.4840    1.1220 N.3   121  HIS121     -0.1241
     18  CA        82.7870    7.0960    1.5430 C.3   121  HIS121      0.1621
     19  C         83.8350    6.9140    2.6270 C.2   121  HIS121      0.2264
     20  O         84.7670    7.7130    2.7520 O.2   121  HIS121     -0.2867
     21  CB        83.1460    6.1860    0.3600 C.3   121  HIS121      0.0745
     22  CG        82.5610    6.6220   -0.9490 C.ar  121  HIS121      0.0817
     23  ND1       83.0900    7.6520   -1.6940 N.ar  121  HIS121     -0.2268
     24  CD2       81.5200    6.1370   -1.6660 C.ar  121  HIS121      0.1154
     25  CE1       82.4040    7.7810   -2.8150 C.ar  121  HIS121      0.1986
     26  NE2       81.4460    6.8730   -2.8220 N.ar  121  HIS121     -0.2212
     27  N         85.7440    4.1760    2.7680 N.3   123  ASP123     -0.1239
     28  CA        86.8920    3.5160    2.1430 C.3   123  ASP123      0.1674
     29  C         87.5760    2.5510    3.1040 C.2   123  ASP123      0.2266
     30  O         88.7980    2.3660    3.0370 O.2   123  ASP123     -0.2867
     31  CB        87.9220    4.5550    1.6960 C.3   123  ASP123      0.1410
     32  CG        87.4360    5.4000    0.5580 C.2   123  ASP123      0.3668
     33  OD1       86.2520    5.2480    0.1880 O.co2 123  ASP123     -0.2456
     34  OD2       88.2390    6.2090    0.0350 O.co2 123  ASP123     -0.2456
     35  N         86.6610   -0.7790    3.5220 N.3   125  ASN125     -0.1240
     36  CA        86.3650   -2.1600    3.1390 C.3   125  ASN125      0.1653
     37  C         87.5950   -3.0570    3.2700 C.2   125  ASN125      0.2266
     38  O         88.6070   -2.8220    2.6200 O.2   125  ASN125     -0.2867
     39  CB        85.9120   -2.2050    1.6840 C.3   125  ASN125      0.1155
     40  CG        84.4310   -2.0620    1.5380 C.2   125  ASN125      0.2627
     41  OD1       83.6670   -2.8410    2.1100 O.2   125  ASN125     -0.2716
     42  ND2       84.0030   -1.0680    0.7630 N.am  125  ASN125     -0.0877
     43  N         84.8260   -6.3700    0.6480 N.3   130  THR130     -0.1203
     44  CA        84.6100   -5.6980   -0.6350 C.3   130  THR130      0.1994
     45  C         83.7040   -6.4480   -1.5950 C.2   130  THR130      0.2619
     46  O         83.7650   -7.6730   -1.6910 O.2   130  THR130     -0.2717
     47  CB        85.9210   -5.4620   -1.3790 C.3   130  THR130      0.1784
     48  OG1       86.9270   -6.3500   -0.8800 O.3   130  THR130     -0.2211
     49  CG2       86.3620   -4.0310   -1.2270 C.3   130  THR130      0.0376
     50  N         82.8670   -5.7040   -2.3110 N.am  131  SER131     -0.1937
     51  CA        81.9630   -6.2960   -3.2960 C.3   131  SER131      0.2055
     52  C         82.7270   -6.3160   -4.6060 C.2   131  SER131      0.2643
     53  O         82.3660   -7.0180   -5.5490 O.2   131  SER131     -0.2714
     54  CB        80.6950   -5.4550   -3.4540 C.3   131  SER131      0.2130
     55  OG        79.9020   -5.5040   -2.2830 O.3   131  SER131     -0.2179
     56  N         83.7870   -5.5180   -4.6450 N.am  132  SER132     -0.1949
     57  CA        84.6730   -5.4130   -5.7990 C.3   132  SER132      0.1924
     58  C         86.0730   -5.5930   -5.2330 C.2   132  SER132      0.2314
     59  O         86.2550   -5.6360   -4.0150 O.2   132  SER132     -0.2863
     60  CB        84.5630   -4.0320   -6.4410 C.3   132  SER132      0.2116
     61  OG        84.8780   -3.0100   -5.5070 O.3   132  SER132     -0.2180
     62  N         88.3940   -3.4530   -5.7380 N.3   134  ASN134     -0.1240
     63  CA        88.9890   -2.1250   -5.8040 C.3   134  ASN134      0.1653
     64  C         89.5660   -1.6160   -4.4920 C.2   134  ASN134      0.2266
     65  O         88.8260   -1.2870   -3.5500 O.2   134  ASN134     -0.2867
     66  CB        87.9690   -1.1330   -6.3670 C.3   134  ASN134      0.1155
     67  CG        87.3370   -1.6240   -7.6660 C.2   134  ASN134      0.2627
     68  OD1       88.0210   -2.1500   -8.5560 O.2   134  ASN134     -0.2716
     69  ND2       86.0260   -1.4440   -7.7830 N.am  134  ASN134     -0.0877
     70  N         91.0220    1.1640   -3.9240 N.3   136  ALA136     -0.1231
     71  CA        90.7630    2.5710   -3.7010 C.3   136  ALA136      0.1694
     72  C         89.6980    2.7080   -2.6110 C.2   136  ALA136      0.2592
     73  O         89.5900    3.7430   -1.9490 O.2   136  ALA136     -0.2718
     74  CB        90.2950    3.2110   -4.9890 C.3   136  ALA136      0.0304
     75  N         88.9220    1.6450   -2.4250 N.am  137  GLY137     -0.1957
     76  CA        87.8820    1.6570   -1.4220 C.3   137  GLY137      0.1869
     77  C         88.3080    0.9580   -0.1470 C.2   137  GLY137      0.2309
     78  O         87.4590    0.6600    0.6980 O.2   137  GLY137     -0.2863
     79  N         77.6860    7.4380    1.6360 N.3   176  ASP176     -0.1239
     80  CA        77.6060    6.2350    0.8020 C.3   176  ASP176      0.1674
     81  C         78.4980    5.1690    1.4350 C.2   176  ASP176      0.2266
     82  O         79.6190    4.9400    0.9960 O.2   176  ASP176     -0.2867
     83  CB        78.0690    6.5800   -0.6270 C.3   176  ASP176      0.1410
     84  CG        77.8720    5.4320   -1.6230 C.2   176  ASP176      0.3668
     85  OD1       76.9260    4.6320   -1.4570 O.co2 176  ASP176     -0.2456
     86  OD2       78.6600    5.3510   -2.5930 O.co2 176  ASP176     -0.2456
     87  N         78.9620    1.1280    2.9090 N.3   178  ASP178     -0.1239
     88  CA        78.4700   -0.2390    2.7620 C.3   178  ASP178      0.1674
     89  C         78.1050   -0.8450    4.1020 C.2   178  ASP178      0.2266
     90  O         78.5380   -0.3570    5.1520 O.2   178  ASP178     -0.2867
     91  CB        79.5160   -1.1320    2.1020 C.3   178  ASP178      0.1410
     92  CG        79.8560   -0.6840    0.7190 C.2   178  ASP178      0.3668
     93  OD1       78.9250   -0.5010   -0.1000 O.co2 178  ASP178     -0.2456
     94  OD2       81.0560   -0.5130    0.4530 O.co2 178  ASP178     -0.2456
     95  N         81.3030   -1.7800    5.8300 N.3   181  GLU181     -0.1245
     96  CA        82.0400   -0.5700    6.2070 C.3   181  GLU181      0.1567
     97  C         81.3650    0.0640    7.3970 C.2   181  GLU181      0.2260
     98  O         82.0290    0.5320    8.3250 O.2   181  GLU181     -0.2867
     99  CB        82.0530    0.4480    5.0660 C.3   181  GLU181      0.0388
    100  CG        82.9870    0.1090    3.9180 C.3   181  GLU181      0.1160
    101  CD        83.0690    1.2310    2.9090 C.2   181  GLU181      0.3649
    102  OE1       82.0440    1.5020    2.2460 O.co2 181  GLU181     -0.2457
    103  OE2       84.1590    1.8450    2.7940 O.co2 181  GLU181     -0.2457
    104  N         89.1970   13.5880   -0.3800 N.3   227  ASP227     -0.1239
    105  CA        88.6520   12.9530   -1.5750 C.3   227  ASP227      0.1674
    106  C         87.6570   13.9550   -2.1470 C.2   227  ASP227      0.2266
    107  O         86.6130   14.2380   -1.5410 O.2   227  ASP227     -0.2867
    108  CB        87.9920   11.6250   -1.2560 C.3   227  ASP227      0.1410
    109  CG        87.2800   11.0020   -2.4430 C.2   227  ASP227      0.3668
    110  OD1       87.0450   11.7310   -3.4320 O.co2 227  ASP227     -0.2456
    111  OD2       86.9650    9.7960   -2.3830 O.co2 227  ASP227     -0.2456
    112  N         85.3290   13.8970   -3.7750 N.3   229  ASP229     -0.1239
    113  CA        83.9420   13.4100   -3.8330 C.3   229  ASP229      0.1674
    114  C         83.3120   13.4830   -2.5160 C.2   229  ASP229      0.2266
    115  O         82.2900   12.8650   -2.2410 O.2   229  ASP229     -0.2867
    116  CB        83.8700   12.0270   -4.4540 C.3   229  ASP229      0.1410
    117  CG        84.1100   10.8540   -3.5260 C.2   229  ASP229      0.3668
    118  OD1       84.1960   11.0650   -2.2850 O.co2 229  ASP229     -0.2456
    119  OD2       84.2140    9.7120   -4.0150 O.co2 229  ASP229     -0.2456
    120  N         83.3310    8.0610   -8.3900 N.3   241  THR241     -0.1218
    121  CA        82.1400    7.6610   -7.6380 C.3   241  THR241      0.1862
    122  C         81.3580    8.8470   -7.0560 C.2   241  THR241      0.2287
    123  O         81.3190    9.0520   -5.8340 O.2   241  THR241     -0.2866
    124  CB        82.5060    6.7010   -6.4730 C.3   241  THR241      0.1770
    125  OG1       83.3540    5.6540   -6.9540 O.3   241  THR241     -0.2211
    126  CG2       81.2550    6.0760   -5.8900 C.3   241  THR241      0.0375
    127  N         91.1580   11.5780   -6.2330 N.3   272  GLU272     -0.1245
    128  CA        90.0080   11.2920   -7.0780 C.3   272  GLU272      0.1567
    129  C         89.6030   12.2920   -8.1390 C.2   272  GLU272      0.2260
    130  O         88.4980   12.2050   -8.6680 O.2   272  GLU272     -0.2867
    131  CB        88.7940   10.9550   -6.2230 C.3   272  GLU272      0.0388
    132  CG        88.9550    9.6730   -5.4310 C.3   272  GLU272      0.1160
    133  CD        89.5660    8.5350   -6.2400 C.2   272  GLU272      0.3649
    134  OE1       89.3810    8.4870   -7.4720 O.co2 272  GLU272     -0.2457
    135  OE2       90.2260    7.6670   -5.6350 O.co2 272  GLU272     -0.2457
@<TRIPOS>BOND
     1     4     3    2
     2     3     2    1
     3     6     5    1
     4     2     5    1
     5     2     1    1
     6   130   129    2
     7    68    67    2
     8   120   121    1
     9   129   128    1
    10    69    67   am
    11    67    66    1
    12   121   122    1
    13   121   124    1
    14   134   133   ar
    15   128   127    1
    16   128   131    1
    17   122   123    2
    18   125   124    1
    19   124   126    1
    20    60    57    1
    21    60    61    1
    22    66    63    1
    23   133   135   ar
    24   133   132    1
    25   131   132    1
    26    63    62    1
    27    63    64    1
    28    57    58    1
    29    57    56    1
    30    53    52    2
    31    58    59    2
    32    74    71    1
    33    56    52   am
    34    52    51    1
    35    64    65    2
    36   116   113    1
    37   116   117    1
    38     7     8    1
    39   119   117   ar
    40    70    71    1
    41   113   112    1
    42   113   114    1
    43    71    72    1
    44   117   118   ar
    45    54    51    1
    46    54    55    1
    47   110   109   ar
    48    51    50    1
    49     8     9    1
    50     8    11    1
    51    26    25   ar
    52    26    24   ar
    53    25    23   ar
    54    72    75   am
    55    72    73    2
    56    86    84   ar
    57   114   115    2
    58   109   111   ar
    59   109   108    1
    60    75    76    1
    61    50    45   am
    62     9    10    2
    63    11    12    1
    64   106   105    1
    65   106   107    2
    66    23    22   ar
    67    46    45    2
    68    24    22   ar
    69    84    85   ar
    70    84    83    1
    71    45    44    1
    72   105   108    1
    73   105   104    1
    74    76    77    1
    75    47    49    1
    76    47    48    1
    77    47    44    1
    78    12    14   ar
    79    12    13   ar
    80    22    21    1
    81    44    43    1
    82    83    80    1
    83    14    16   ar
    84    13    15   ar
    85    77    78    2
    86    93    92   ar
    87    34    32   ar
    88    33    32   ar
    89    21    18    1
    90    16    15   ar
    91    94    92   ar
    92    32    31    1
    93    92    91    1
    94    42    40   am
    95    80    81    1
    96    80    79    1
    97    82    81    2
    98    17    18    1
    99    40    39    1
   100    40    41    2
   101    18    19    1
   102    39    36    1
   103    31    28    1
   104    91    88    1
   105    28    27    1
   106    28    29    1
   107   102   101   ar
   108    38    37    2
   109    19    20    2
   110    88    87    1
   111    88    89    1
   112   103   101   ar
   113   101   100    1
   114    30    29    2
   115    36    37    1
   116    36    35    1
   117   100    99    1
   118    89    90    2
   119    99    96    1
   120    95    96    1
   121    96    97    1
   122    97    98    2
