@<TRIPOS>MOLECULE
tmp/1t5pB00.pdb
 171 162 0 0 0
SMALL
GASTEIGER

@<TRIPOS>ATOM
      1  N         30.7670   -7.0280   39.1850 N.3     5  SER5       -0.1217
      2  CA        32.1000   -6.4920   39.4260 C.3     5  SER5        0.1889
      3  C         33.1450   -7.4130   38.8150 C.2     5  SER5        0.2288
      4  O         34.0610   -6.9730   38.1370 O.2     5  SER5       -0.2866
      5  CB        32.3660   -6.3810   40.9310 C.3     5  SER5        0.2089
      6  OG        31.4740   -5.4760   41.5610 O.3     5  SER5       -0.2183
      7  N         35.7180   -6.6680   35.8050 N.3     9  LYS9       -0.1245
      8  CA        37.1540   -6.7660   36.0170 C.3     9  LYS9        0.1561
      9  C         37.7620   -7.7530   35.0140 C.2     9  LYS9        0.2260
     10  O         38.9150   -7.5980   34.5920 O.2     9  LYS9       -0.2867
     11  CB        37.4310   -7.2100   37.4580 C.3     9  LYS9        0.0271
     12  CG        38.8730   -7.5980   37.7530 C.3     9  LYS9        0.0035
     13  CD        39.1290   -7.6980   39.2640 C.3     9  LYS9        0.0206
     14  CE        38.0660   -8.5240   40.0030 C.3     9  LYS9        0.1093
     15  NZ        38.0450   -9.9750   39.6350 N.3     9  LYS9       -0.1314
     16  N         37.7670   -6.2690   31.5270 N.3    12  THR12      -0.1218
     17  CA        38.8030   -5.2560   31.5830 C.3    12  THR12       0.1862
     18  C         40.1960   -5.8370   31.7930 C.2    12  THR12       0.2287
     19  O         41.0710   -5.1720   32.3400 O.2    12  THR12      -0.2866
     20  CB        38.5310   -4.2570   32.6980 C.3    12  THR12       0.1770
     21  OG1       38.4770   -4.9540   33.9460 O.3    12  THR12      -0.2211
     22  CG2       37.2200   -3.5400   32.4510 C.3    12  THR12       0.0375
     23  N         41.0190   -5.5110   27.3430 N.3    15  VAL15      -0.1231
     24  CA        40.7410   -4.1110   27.0170 C.3    15  VAL15       0.1692
     25  C         41.6330   -3.1900   27.8550 C.2    15  VAL15       0.2592
     26  O         41.7340   -1.9850   27.5930 O.2    15  VAL15      -0.2718
     27  CB        39.2560   -3.7580   27.2780 C.3    15  VAL15       0.0266
     28  CG1       38.3530   -4.7330   26.5350 C.3    15  VAL15       0.0020
     29  CG2       38.9660   -3.7850   28.7670 C.3    15  VAL15       0.0020
     30  N         42.2670   -3.7750   28.8680 N.am   16  HIS16      -0.1962
     31  CA        43.1720   -3.0500   29.7470 C.3    16  HIS16       0.1787
     32  C         44.5880   -3.2740   29.2180 C.2    16  HIS16       0.2620
     33  O         45.2670   -2.3310   28.8140 O.2    16  HIS16      -0.2715
     34  CB        43.0510   -3.5860   31.1760 C.3    16  HIS16       0.0785
     35  CG        43.6810   -2.7070   32.2100 C.ar   16  HIS16       0.0821
     36  ND1       45.0180   -2.3780   32.1950 N.ar   16  HIS16      -0.2267
     37  CD2       43.1540   -2.0920   33.2930 C.ar   16  HIS16       0.1154
     38  CE1       45.2890   -1.5970   33.2240 C.ar   16  HIS16       0.1986
     39  NE2       44.1750   -1.4080   33.9070 N.ar   16  HIS16      -0.2212
     40  N         45.0240   -4.5300   29.2160 N.am   17  THR17      -0.1951
     41  CA        46.3510   -4.8860   28.7210 C.3    17  THR17       0.1897
     42  C         46.6170   -4.2630   27.3490 C.2    17  THR17       0.2313
     43  O         47.5200   -3.4380   27.1890 O.2    17  THR17      -0.2863
     44  CB        46.5030   -6.4170   28.5970 C.3    17  THR17       0.1794
     45  OG1       46.3830   -7.0180   29.8930 O.3    17  THR17      -0.2208
     46  CG2       47.8540   -6.7670   27.9990 C.3    17  THR17       0.0378
     47  N         32.5170    3.2130   36.8020 N.3   109  TYR109     -0.1227
     48  CA        33.4500    2.1740   37.2110 C.3   109  TYR109      0.1736
     49  C         34.8050    2.3680   36.5290 C.2   109  TYR109      0.2596
     50  O         35.8440    2.4300   37.1850 O.2   109  TYR109     -0.2718
     51  CB        32.8720    0.8070   36.8340 C.3   109  TYR109      0.0548
     52  CG        33.8750   -0.3190   36.8480 C.ar  109  TYR109     -0.0200
     53  CD1       34.2440   -0.9460   38.0410 C.ar  109  TYR109     -0.0009
     54  CD2       34.4840   -0.7390   35.6680 C.ar  109  TYR109     -0.0009
     55  CE1       35.2000   -1.9640   38.0510 C.ar  109  TYR109      0.0417
     56  CE2       35.4390   -1.7530   35.6690 C.ar  109  TYR109      0.0417
     57  CZ        35.7920   -2.3570   36.8590 C.ar  109  TYR109      0.1957
     58  OH        36.7540   -3.3430   36.8370 O.3   109  TYR109     -0.2866
     59  N         34.7770    2.4470   35.2040 N.am  110  THR110     -0.1939
     60  CA        35.9880    2.6280   34.4170 C.3   110  THR110      0.2028
     61  C         36.8170    3.8100   34.9110 C.2   110  THR110      0.2642
     62  O         38.0150    3.6710   35.1670 O.2   110  THR110     -0.2714
     63  CB        35.6510    2.8440   32.9250 C.3   110  THR110      0.1808
     64  OG1       34.8970    1.7270   32.4510 O.3   110  THR110     -0.2208
     65  CG2       36.9210    2.9640   32.1010 C.3   110  THR110      0.0379
     66  N         36.1830    4.9690   35.0430 N.am  111  ARG111     -0.1977
     67  CA        36.8780    6.1590   35.5090 C.3   111  ARG111      0.1597
     68  C         37.3350    6.1000   36.9740 C.2   111  ARG111      0.2287
     69  O         38.5410    6.0910   37.2580 O.2   111  ARG111     -0.2864
     70  CB        35.9980    7.3930   35.2910 C.3   111  ARG111      0.0334
     71  CG        36.0510    7.9360   33.8710 C.3   111  ARG111      0.0492
     72  CD        37.0990    9.0300   33.7300 C.3   111  ARG111      0.2205
     73  NE        38.4650    8.6050   34.0410 N.pl3 111  ARG111     -0.0865
     74  CZ        39.3460    8.1750   33.1380 C.cat 111  ARG111      0.5346
     75  NH1       39.0030    8.1010   31.8540 N.pl3 111  ARG111      0.1354
     76  NH2       40.5870    7.8540   33.5150 N.pl3 111  ARG111      0.1354
     77  N         37.1920    3.6420   39.5290 N.3   113  LEU113     -0.1231
     78  CA        37.9890    2.5140   39.9800 C.3   113  LEU113      0.1693
     79  C         39.3250    2.4570   39.2630 C.2   113  LEU113      0.2592
     80  O         40.3400    2.0970   39.8580 O.2   113  LEU113     -0.2718
     81  CB        37.2240    1.1990   39.8070 C.3   113  LEU113      0.0284
     82  CG        36.0420    1.0340   40.7740 C.3   113  LEU113      0.0019
     83  CD1       35.8100   -0.4440   41.0630 C.3   113  LEU113      0.0001
     84  CD2       36.3250    1.7610   42.0690 C.3   113  LEU113      0.0001
     85  N         39.3260    2.8080   37.9830 N.am  114  GLY114     -0.1957
     86  CA        40.5710    2.8300   37.2420 C.3   114  GLY114      0.1869
     87  C         41.5230    3.8320   37.8810 C.2   114  GLY114      0.2309
     88  O         42.6200    3.4730   38.3110 O.2   114  GLY114     -0.2863
     89  N         42.6510    2.9200   41.5760 N.3   117  SER117     -0.1202
     90  CA        43.6270    1.8470   41.6380 C.3   117  SER117      0.2020
     91  C         44.9580    2.1930   40.9640 C.2   117  SER117      0.2619
     92  O         46.0250    2.0150   41.5510 O.2   117  SER117     -0.2717
     93  CB        43.0190    0.6010   40.9980 C.3   117  SER117      0.2103
     94  OG        41.8030    0.2410   41.6300 O.3   117  SER117     -0.2182
     95  N         44.8880    2.6900   39.7330 N.am  118  GLY118     -0.1956
     96  CA        46.0960    3.0410   39.0120 C.3   118  GLY118      0.1869
     97  C         46.7610    4.2920   39.5480 C.2   118  GLY118      0.2309
     98  O         47.9620    4.2980   39.8120 O.2   118  GLY118     -0.2863
     99  N         49.9190    4.6230   41.6070 N.3   121  VAL121     -0.1231
    100  CA        51.2380    4.4280   41.0250 C.3   121  VAL121      0.1692
    101  C         51.4660    5.4210   39.8830 C.2   121  VAL121      0.2591
    102  O         52.5550    5.9820   39.7380 O.2   121  VAL121     -0.2718
    103  CB        51.3910    2.9830   40.4980 C.3   121  VAL121      0.0266
    104  CG1       51.2970    2.0010   41.6520 C.3   121  VAL121      0.0020
    105  CG2       50.3060    2.6780   39.4760 C.3   121  VAL121      0.0020
    106  N         50.4230    5.6390   39.0860 N.am  122  LEU122     -0.1980
    107  CA        50.4710    6.5570   37.9480 C.3   122  LEU122      0.1596
    108  C         50.9920    7.9380   38.3420 C.2   122  LEU122      0.2287
    109  O         51.5240    8.6720   37.5110 O.2   122  LEU122     -0.2864
    110  CB        49.0710    6.6940   37.3390 C.3   122  LEU122      0.0297
    111  CG        48.4420    5.4130   36.7820 C.3   122  LEU122      0.0022
    112  CD1       46.9630    5.6320   36.4900 C.3   122  LEU122      0.0001
    113  CD2       49.1900    4.9960   35.5250 C.3   122  LEU122      0.0001
    114  N         36.7930    0.3250   47.4600 N.3   154  LYS154     -0.1245
    115  CA        36.5930   -0.4610   46.2460 C.3   154  LYS154      0.1561
    116  C         35.6940   -1.6620   46.5280 C.2   154  LYS154      0.2260
    117  O         34.8450   -2.0150   45.7120 O.2   154  LYS154     -0.2867
    118  CB        37.9270   -0.9410   45.6730 C.3   154  LYS154      0.0271
    119  CG        38.7620    0.1830   45.1020 C.3   154  LYS154      0.0035
    120  CD        39.5890   -0.2950   43.9150 C.3   154  LYS154      0.0206
    121  CE        40.7610   -1.1640   44.3500 C.3   154  LYS154      0.1093
    122  NZ        41.7380   -0.3440   45.1130 N.3   154  LYS154     -0.1314
    123  N         32.2650   -2.3050   44.8550 N.3   158  ARG158     -0.1245
    124  CA        31.9450   -3.4840   44.0570 C.3   158  ARG158      0.1563
    125  C         30.6410   -4.1350   44.5270 C.2   158  ARG158      0.2260
    126  O         29.8380   -4.5880   43.7150 O.2   158  ARG158     -0.2867
    127  CB        33.0820   -4.4980   44.1220 C.3   158  ARG158      0.0307
    128  CG        34.2730   -4.1360   43.2630 C.3   158  ARG158      0.0489
    129  CD        35.4930   -4.9510   43.6600 C.3   158  ARG158      0.2205
    130  NE        36.6410   -4.6720   42.8040 N.pl3 158  ARG158     -0.0865
    131  CZ        37.9000   -4.7210   43.2230 C.cat 158  ARG158      0.5346
    132  NH1       38.1620   -5.0350   44.4830 N.pl3 158  ARG158      0.1354
    133  NH2       38.8970   -4.4650   42.3890 N.pl3 158  ARG158      0.1354
    134  N         36.8570    1.8640   27.3950 N.3   182  PHE182     -0.1241
    135  CA        38.2840    1.6320   27.2270 C.3   182  PHE182      0.1605
    136  C         38.7380    2.0560   25.8530 C.2   182  PHE182      0.2264
    137  O         39.8700    2.5130   25.6780 O.2   182  PHE182     -0.2867
    138  CB        38.6200    0.1600   27.4660 C.3   182  PHE182      0.0534
    139  CG        38.6630   -0.2080   28.9100 C.ar  182  PHE182     -0.0203
    140  CD1       37.5080   -0.1670   29.6820 C.ar  182  PHE182     -0.0042
    141  CD2       39.8690   -0.5420   29.5180 C.ar  182  PHE182     -0.0042
    142  CE1       37.5430   -0.4480   31.0450 C.ar  182  PHE182     -0.0003
    143  CE2       39.9250   -0.8270   30.8790 C.ar  182  PHE182     -0.0003
    144  CZ        38.7550   -0.7780   31.6480 C.ar  182  PHE182     -0.0000
    145  N         39.0790    5.8610   25.6620 N.3   185  ASN185     -0.1225
    146  CA        40.2850    6.2710   26.3620 C.3   185  ASN185      0.1785
    147  C         41.4730    5.9280   25.4890 C.2   185  ASN185      0.2597
    148  O         42.4080    6.7140   25.3630 O.2   185  ASN185     -0.2718
    149  CB        40.4030    5.5630   27.7150 C.3   185  ASN185      0.1169
    150  CG        39.6400    6.2830   28.8250 C.2   185  ASN185      0.2627
    151  OD1       40.0480    7.3580   29.2900 O.2   185  ASN185     -0.2716
    152  ND2       38.5180    5.7010   29.2430 N.am  185  ASN185     -0.0877
    153  N         41.4180    4.7530   24.8730 N.am  186  ILE186     -0.1980
    154  CA        42.4910    4.3100   23.9950 C.3   186  ILE186      0.1595
    155  C         42.6570    5.2830   22.8240 C.2   186  ILE186      0.2287
    156  O         43.7700    5.7260   22.5280 O.2   186  ILE186     -0.2864
    157  CB        42.2190    2.8610   23.4850 C.3   186  ILE186      0.0276
    158  CG1       42.6050    1.8640   24.5890 C.3   186  ILE186      0.0022
    159  CG2       42.9870    2.5800   22.1870 C.3   186  ILE186      0.0022
    160  CD1       42.3490    0.4170   24.2400 C.3   186  ILE186      0.0001
    161  N         44.0820    8.7890   23.9660 N.3   189  PHE189     -0.1241
    162  CA        45.5220    8.7590   24.1380 C.3   189  PHE189      0.1605
    163  C         46.2190    8.6660   22.7880 C.2   189  PHE189      0.2264
    164  O         47.2310    9.3240   22.5710 O.2   189  PHE189     -0.2867
    165  CB        45.9310    7.5890   25.0380 C.3   189  PHE189      0.0534
    166  CG        45.3690    7.6780   26.4310 C.ar  189  PHE189     -0.0203
    167  CD1       45.4440    8.8730   27.1500 C.ar  189  PHE189     -0.0042
    168  CD2       44.7370    6.5790   27.0180 C.ar  189  PHE189     -0.0042
    169  CE1       44.8930    8.9800   28.4390 C.ar  189  PHE189     -0.0003
    170  CE2       44.1840    6.6730   28.3040 C.ar  189  PHE189     -0.0003
    171  CZ        44.2610    7.8770   29.0160 C.ar  189  PHE189     -0.0000
@<TRIPOS>BOND
     1   159   157    1
     2   156   155    2
     3   164   163    2
     4   163   162    1
     5   155   154    1
     6   157   154    1
     7   157   158    1
     8   161   162    1
     9   154   153    1
    10   162   165    1
    11   160   158    1
    12   153   147   am
    13   165   166    1
    14   148   147    2
    15   147   146    1
    16   145   146    1
    17   137   136    2
    18   136   135    1
    19   146   149    1
    20   166   168   ar
    21   166   167   ar
    22    28    27    1
    23    24    27    1
    24    24    23    1
    25    24    25    1
    26   168   170   ar
    27   167   169   ar
    28    43    42    2
    29   135   134    1
    30   135   138    1
    31    27    29    1
    32    42    41    1
    33   138   139    1
    34    26    25    2
    35   149   150    1
    36    25    30   am
    37    46    44    1
    38   170   171   ar
    39   169   171   ar
    40    44    41    1
    41    44    45    1
    42    41    40    1
    43    33    32    2
    44   150   152   am
    45   150   151    2
    46    30    31    1
    47   139   141   ar
    48   139   140   ar
    49    40    32   am
    50    32    31    1
    51   141   143   ar
    52   140   142   ar
    53    31    34    1
    54   143   144   ar
    55   142   144   ar
    56    34    35    1
    57    16    17    1
    58    17    18    1
    59    17    20    1
    60    18    19    2
    61    75    74    1
    62    65    63    1
    63    36    35   ar
    64    36    38   ar
    65    35    37   ar
    66    64    63    1
    67    22    20    1
    68    20    21    1
    69    63    60    1
    70    74    76    1
    71    74    73    2
    72    38    39   ar
    73    37    39   ar
    74    72    71    1
    75    72    73    1
    76    71    70    1
    77    60    61    1
    78    60    59    1
    79    10     9    2
    80    61    66   am
    81    61    62    2
    82     9     8    1
    83    66    67    1
    84    59    49   am
    85    70    67    1
    86    67    68    1
    87   113   111    1
    88    54    56   ar
    89    54    52   ar
    90    56    57   ar
    91     7     8    1
    92     8    11    1
    93   112   111    1
    94    49    50    2
    95    49    48    1
    96   111   110    1
    97    47    48    1
    98    51    52    1
    99    51    48    1
   100    58    57    1
   101    52    53   ar
   102    57    55   ar
   103    68    69    2
   104    86    87    1
   105    86    85    1
   106   110   107    1
   107    11    12    1
   108   109   108    2
   109    12    13    1
   110    87    88    2
   111   107   108    1
   112   107   106    1
   113    85    79   am
   114    53    55   ar
   115     4     3    2
   116     3     2    1
   117    96    97    1
   118    96    95    1
   119   106   101   am
   120     1     2    1
   121    79    80    2
   122    79    78    1
   123    13    14    1
   124     2     5    1
   125   105   103    1
   126    77    78    1
   127    97    98    2
   128    15    14    1
   129    95    91   am
   130   102   101    2
   131    81    78    1
   132    81    82    1
   133   101   100    1
   134   103   100    1
   135   103   104    1
   136    82    83    1
   137    82    84    1
   138     5     6    1
   139    91    92    2
   140    91    90    1
   141    93    94    1
   142    93    90    1
   143   100    99    1
   144    89    90    1
   145   133   131    1
   146   130   131    2
   147   130   129    1
   148   131   132    1
   149   128   129    1
   150   128   127    1
   151   126   125    2
   152   120   121    1
   153   120   119    1
   154   124   127    1
   155   124   125    1
   156   124   123    1
   157   121   122    1
   158   119   118    1
   159   118   115    1
   160   117   116    2
   161   115   116    1
   162   115   114    1
