@<TRIPOS>MOLECULE
tmp/1t5tA00.pdb
 167 155 0 0 0
SMALL
GASTEIGER

@<TRIPOS>ATOM
      1  N        -13.2420    4.4420   21.7600 N.3   351  ASP351     -0.1239
      2  CA       -13.9990    4.2000   20.5250 C.3   351  ASP351      0.1674
      3  C        -15.0630    5.2830   20.3460 C.2   351  ASP351      0.2266
      4  O        -15.4460    5.9350   21.3110 O.2   351  ASP351     -0.2867
      5  CB       -14.6680    2.8210   20.5540 C.3   351  ASP351      0.1410
      6  CG       -15.4680    2.5470   19.2920 C.2   351  ASP351      0.3668
      7  OD1      -14.8760    2.5880   18.1850 O.co2 351  ASP351     -0.2456
      8  OD2      -16.6900    2.3290   19.2980 O.co2 351  ASP351     -0.2456
      9  N        -18.0480    5.0430   17.6370 N.3   353  THR353     -0.1218
     10  CA       -19.3610    4.5900   17.1740 C.3   353  THR353      0.1862
     11  C        -19.9470    3.6040   18.1700 C.2   353  THR353      0.2287
     12  O        -19.3690    2.5520   18.4440 O.2   353  THR353     -0.2866
     13  CB       -19.2950    3.9350   15.7950 C.3   353  THR353      0.1770
     14  OG1      -18.3460    4.6140   14.9660 O.3   353  THR353     -0.2211
     15  CG2      -20.6260    4.0530   15.0840 C.3   353  THR353      0.0375
     16  N        -25.5040   -5.2140   13.1540 N.3   439  GLU439     -0.1245
     17  CA       -24.9150   -3.9080   13.3730 C.3   439  GLU439      0.1567
     18  C        -25.8460   -2.7630   12.9610 C.2   439  GLU439      0.2260
     19  O        -26.6170   -2.8850   12.0120 O.2   439  GLU439     -0.2867
     20  CB       -23.5860   -3.8460   12.6310 C.3   439  GLU439      0.0388
     21  CG       -22.6230   -4.9510   13.0510 C.3   439  GLU439      0.1160
     22  CD       -22.1180   -4.7980   14.4960 C.2   439  GLU439      0.3649
     23  OE1      -21.5330   -3.7030   14.8240 O.co2 439  GLU439     -0.2457
     24  OE2      -22.2810   -5.7790   15.2970 O.co2 439  GLU439     -0.2457
     25  N        -25.1350    0.3850   11.6730 N.3   441  THR441     -0.1203
     26  CA       -24.8550    0.9170   10.3470 C.3   441  THR441      0.1994
     27  C        -25.6030    0.1790    9.2820 C.2   441  THR441      0.2617
     28  O        -26.2010    0.8060    8.3970 O.2   441  THR441     -0.2717
     29  CB       -23.4190    0.6950   10.0480 C.3   441  THR441      0.1784
     30  OG1      -22.6650    1.2660   11.1150 O.3   441  THR441     -0.2211
     31  CG2      -23.0310    1.3670    8.7680 C.3   441  THR441      0.0376
     32  N        -25.5090   -1.1610    9.3740 N.am  442  GLU442     -0.1979
     33  CA       -26.1630   -2.0820    8.4430 C.3   442  GLU442      0.1602
     34  C        -27.6580   -2.0440    8.5980 C.2   442  GLU442      0.2287
     35  O        -28.3700   -2.0450    7.5940 O.2   442  GLU442     -0.2864
     36  CB       -25.6610   -3.4940    8.6190 C.3   442  GLU442      0.0415
     37  CG       -24.3730   -3.7160    7.8610 C.3   442  GLU442      0.1163
     38  CD       -24.1000   -5.1870    7.5920 C.2   442  GLU442      0.3649
     39  OE1      -24.5730   -6.0330    8.4070 O.co2 442  GLU442     -0.2457
     40  OE2      -23.4140   -5.4740    6.5710 O.co2 442  GLU442     -0.2457
     41  N        -17.3840   -8.1120    5.7980 N.3   487  PHE487     -0.1241
     42  CA       -16.7160   -6.8550    6.1180 C.3   487  PHE487      0.1605
     43  C        -15.4640   -7.1140    6.9300 C.2   487  PHE487      0.2264
     44  O        -15.5200   -7.8360    7.9220 O.2   487  PHE487     -0.2867
     45  CB       -17.6410   -5.9680    6.9370 C.3   487  PHE487      0.0534
     46  CG       -16.9720   -4.7640    7.4860 C.ar  487  PHE487     -0.0203
     47  CD1      -16.6180   -4.7040    8.8240 C.ar  487  PHE487     -0.0042
     48  CD2      -16.7010   -3.6880    6.6740 C.ar  487  PHE487     -0.0042
     49  CE1      -16.0270   -3.5880    9.3470 C.ar  487  PHE487     -0.0003
     50  CE2      -16.0990   -2.5800    7.1900 C.ar  487  PHE487     -0.0003
     51  CZ       -15.7640   -2.5260    8.5280 C.ar  487  PHE487     -0.0000
     52  N        -11.8920   -4.6590    8.3150 N.3   489  ARG489     -0.1245
     53  CA       -11.5040   -3.2630    8.5360 C.3   489  ARG489      0.1563
     54  C        -10.2340   -2.8120    7.8470 C.2   489  ARG489      0.2260
     55  O         -9.8260   -1.6580    8.0040 O.2   489  ARG489     -0.2867
     56  CB       -11.3570   -2.9870   10.0230 C.3   489  ARG489      0.0307
     57  CG       -12.6320   -3.3000   10.7430 C.3   489  ARG489      0.0489
     58  CD       -12.5920   -3.1950   12.2580 C.3   489  ARG489      0.2205
     59  NE       -13.9670   -3.2130   12.7240 N.pl3 489  ARG489     -0.0865
     60  CZ       -14.6760   -4.3200   12.7930 C.cat 489  ARG489      0.5346
     61  NH1      -14.0940   -5.4660   12.4810 N.pl3 489  ARG489      0.1354
     62  NH2      -15.9480   -4.2930   13.1870 N.pl3 489  ARG489      0.1354
     63  N        -11.8660   -1.8880    4.6910 N.3   492  LYS492     -0.1245
     64  CA       -13.0040   -1.0640    5.1330 C.3   492  LYS492      0.1561
     65  C        -14.2030   -1.1250    4.1910 C.2   492  LYS492      0.2260
     66  O        -14.8750   -0.1270    3.9150 O.2   492  LYS492     -0.2867
     67  CB       -12.5900    0.3900    5.4250 C.3   492  LYS492      0.0271
     68  CG       -11.7750    0.5120    6.7080 C.3   492  LYS492      0.0035
     69  CD       -11.1930    1.8910    6.9690 C.3   492  LYS492      0.0206
     70  CE        -9.9980    1.7640    7.9340 C.3   492  LYS492      0.1093
     71  NZ        -8.8470    0.8540    7.4910 N.3   492  LYS492     -0.1314
     72  N        -17.1550   -4.3020    2.2660 N.3   494  MET494     -0.1245
     73  CA       -17.7830   -5.6080    2.2270 C.3   494  MET494      0.1570
     74  C        -18.4670   -5.8190    0.8860 C.2   494  MET494      0.2261
     75  O        -18.9450   -4.8780    0.2580 O.2   494  MET494     -0.2867
     76  CB       -18.8220   -5.6650    3.3260 C.3   494  MET494      0.0387
     77  CG       -19.9190   -6.6600    3.1540 C.3   494  MET494      0.0595
     78  SD       -20.8910   -6.6530    4.6520 S.3   494  MET494     -0.1393
     79  CE       -22.2320   -7.7020    4.2290 C.3   494  MET494      0.0692
     80  N        -20.3020   -2.1560   -0.5480 N.3   515  LYS515     -0.1231
     81  CA       -20.5840   -1.0230    0.3320 C.3   515  LYS515      0.1693
     82  C        -19.4060   -0.8640    1.2730 C.2   515  LYS515      0.2593
     83  O        -18.7360   -1.8410    1.6210 O.2   515  LYS515     -0.2718
     84  CB       -21.8930   -1.2450    1.0870 C.3   515  LYS515      0.0285
     85  CG       -21.7640   -1.6670    2.5370 C.3   515  LYS515      0.0035
     86  CD       -23.1490   -1.8200    3.1610 C.3   515  LYS515      0.0206
     87  CE       -23.1740   -2.5840    4.4740 C.3   515  LYS515      0.1093
     88  NZ       -22.5710   -3.9880    4.3880 N.3   515  LYS515     -0.1314
     89  N        -19.0870    0.3650    1.6410 N.am  516  GLY516     -0.1942
     90  CA       -17.8540    0.5800    2.3960 C.3   516  GLY516      0.2014
     91  C        -17.5420    2.0290    2.7060 C.2   516  GLY516      0.2638
     92  O        -18.2880    2.9330    2.3780 O.2   516  GLY516     -0.2714
     93  N        -16.4330    2.2370    3.3870 N.am  517  ALA517     -0.1977
     94  CA       -16.0200    3.5580    3.7030 C.3   517  ALA517      0.1597
     95  C        -15.7410    4.1970    2.3630 C.2   517  ALA517      0.2287
     96  O        -15.1170    3.5980    1.5030 O.2   517  ALA517     -0.2864
     97  CB       -14.7850    3.5330    4.5640 C.3   517  ALA517      0.0319
     98  N        -22.3540   10.0970    9.2150 N.3   560  ARG560     -0.1231
     99  CA       -21.4610    8.9540    9.0700 C.3   560  ARG560      0.1694
    100  C        -21.6840    8.3900    7.6800 C.2   560  ARG560      0.2592
    101  O        -22.7920    7.9240    7.3740 O.2   560  ARG560     -0.2718
    102  CB       -21.8430    7.9010   10.0890 C.3   560  ARG560      0.0321
    103  CG       -21.1830    6.5720    9.8420 C.3   560  ARG560      0.0489
    104  CD       -21.5870    5.4740   10.7640 C.3   560  ARG560      0.2205
    105  NE       -20.4180    4.7880   11.3090 N.pl3 560  ARG560     -0.0865
    106  CZ       -20.1810    3.5030   11.1560 C.cat 560  ARG560      0.5346
    107  NH1      -21.0220    2.7780   10.4660 N.pl3 560  ARG560      0.1354
    108  NH2      -19.1210    2.9150   11.6780 N.pl3 560  ARG560      0.1354
    109  N        -20.6740    8.4110    6.8190 N.am  561  CYS561     -0.1956
    110  CA       -20.9620    8.0890    5.4190 C.3   561  CYS561      0.1843
    111  C        -20.4810    6.7310    4.9180 C.2   561  CYS561      0.2625
    112  O        -19.4430    6.1870    5.3310 O.2   561  CYS561     -0.2714
    113  CB       -20.4530    9.1920    4.4950 C.3   561  CYS561      0.0997
    114  SG       -21.2420   10.7870    4.8650 S.3   561  CYS561     -0.0797
    115  N        -21.2490    6.2240    3.9630 N.am  562  LEU562     -0.1977
    116  CA       -20.9490    4.9810    3.3440 C.3   562  LEU562      0.1596
    117  C        -21.1690    5.1290    1.8370 C.2   562  LEU562      0.2287
    118  O        -22.1910    5.6690    1.4190 O.2   562  LEU562     -0.2864
    119  CB       -21.8710    3.9580    3.9730 C.3   562  LEU562      0.0297
    120  CG       -21.3080    2.5580    4.1930 C.3   562  LEU562      0.0022
    121  CD1      -20.1720    2.5450    5.2280 C.3   562  LEU562      0.0001
    122  CD2      -22.4450    1.6500    4.6490 C.3   562  LEU562      0.0001
    123  N        -11.1930    5.8700   16.4070 N.3   625  THR625     -0.1203
    124  CA       -12.2810    5.3050   15.6360 C.3   625  THR625      0.1994
    125  C        -11.8910    4.9000   14.2300 C.2   625  THR625      0.2618
    126  O        -11.0770    5.5460   13.6160 O.2   625  THR625     -0.2717
    127  CB       -13.4440    6.3010   15.5960 C.3   625  THR625      0.1784
    128  OG1      -14.4750    5.7860   14.7470 O.3   625  THR625     -0.2211
    129  CG2      -13.0540    7.5800   14.9200 C.3   625  THR625      0.0376
    130  N        -12.5170    3.8610   13.6950 N.am  626  GLY626     -0.1942
    131  CA       -12.3570    3.5180   12.2760 C.3   626  GLY626      0.2014
    132  C        -13.0040    4.4920   11.2950 C.2   626  GLY626      0.2638
    133  O        -12.6880    4.4680   10.1100 O.2   626  GLY626     -0.2714
    134  N        -13.9210    5.3310   11.7790 N.am  627  ASP627     -0.1971
    135  CA       -14.5960    6.2720   10.9200 C.3   627  ASP627      0.1709
    136  C        -13.6580    7.3380   10.3810 C.2   627  ASP627      0.2293
    137  O        -12.5160    7.5260   10.8250 O.2   627  ASP627     -0.2864
    138  CB       -15.7420    6.9670   11.6440 C.3   627  ASP627      0.1436
    139  CG       -16.9620    7.2010   10.7470 C.2   627  ASP627      0.3671
    140  OD1      -18.0650    7.4640   11.3150 O.co2 627  ASP627     -0.2456
    141  OD2      -16.9200    7.1110    9.4920 O.co2 627  ASP627     -0.2456
    142  N         -9.8750    6.5200   10.9980 N.3   678  ARG678     -0.1231
    143  CA        -9.5840    5.5470    9.9660 C.3   678  ARG678      0.1694
    144  C         -8.4560    4.5940   10.3740 C.2   678  ARG678      0.2591
    145  O         -7.4900    4.3720    9.6430 O.2   678  ARG678     -0.2718
    146  CB        -9.3050    6.2900    8.6720 C.3   678  ARG678      0.0321
    147  CG       -10.5830    6.8030    8.0480 C.3   678  ARG678      0.0489
    148  CD       -11.4210    5.7280    7.3230 C.3   678  ARG678      0.2205
    149  NE       -12.5890    6.2920    6.6460 N.pl3 678  ARG678     -0.0865
    150  CZ       -13.8640    5.9750    6.8630 C.cat 678  ARG678      0.5346
    151  NH1      -14.2360    5.0440    7.7410 N.pl3 678  ARG678      0.1354
    152  NH2      -14.7970    6.5910    6.1540 N.pl3 678  ARG678      0.1354
    153  N         -8.6290    3.9970   11.5420 N.am  679  VAL679     -0.1980
    154  CA        -7.5630    3.2850   12.1940 C.3   679  VAL679      0.1595
    155  C         -7.9720    1.8240   12.4740 C.2   679  VAL679      0.2287
    156  O         -9.0920    1.5860   12.9070 O.2   679  VAL679     -0.2864
    157  CB        -7.2450    4.0570   13.4690 C.3   679  VAL679      0.0276
    158  CG1       -8.4190    4.1730   14.3940 C.3   679  VAL679      0.0022
    159  CG2       -6.2150    3.3990   14.1910 C.3   679  VAL679      0.0022
    160  N        -13.4710   -4.7640   17.3870 N.3   706  ASN706     -0.1240
    161  CA       -12.2620   -4.0400   16.9980 C.3   706  ASN706      0.1653
    162  C        -11.6690   -3.2830   18.1870 C.2   706  ASN706      0.2266
    163  O        -10.6070   -2.6820   18.0770 O.2   706  ASN706     -0.2867
    164  CB       -12.5270   -3.1100   15.8000 C.3   706  ASN706      0.1155
    165  CG       -13.5000   -1.9950   16.1030 C.2   706  ASN706      0.2627
    166  OD1      -14.3630   -2.1120   16.9540 O.2   706  ASN706     -0.2716
    167  ND2      -13.3790   -0.9130   15.3740 N.am  706  ASN706     -0.0877
@<TRIPOS>BOND
     1    80    81    1
     2    75    74    2
     3    81    84    1
     4    81    82    1
     5    74    73    1
     6    84    85    1
     7    82    83    2
     8    82    89   am
     9   118   117    2
    10    96    95    2
    11    89    90    1
    12   117   116    1
    13    73    72    1
    14    73    76    1
    15    95    94    1
    16    92    91    2
    17    90    91    1
    18    85    86    1
    19    91    93   am
    20    77    76    1
    21    77    78    1
    22    86    87    1
    23   116   115    1
    24   116   119    1
    25    93    94    1
    26    94    97    1
    27    66    65    2
    28   115   111   am
    29   119   120    1
    30    65    64    1
    31   120   122    1
    32   120   121    1
    33    79    78    1
    34    88    87    1
    35   113   114    1
    36   113   110    1
    37    63    64    1
    38   111   112    2
    39   111   110    1
    40    64    67    1
    41   110   109    1
    42    67    68    1
    43    41    42    1
    44    42    43    1
    45    42    45    1
    46   152   150    1
    47    40    38   ar
    48   149   150    2
    49   149   148    1
    50    48    50   ar
    51    48    46   ar
    52    68    69    1
    53   109   100   am
    54   150   151    1
    55    43    44    2
    56    45    46    1
    57    69    70    1
    58    50    51   ar
    59   148   147    1
    60   101   100    2
    61    46    47   ar
    62    71    70    1
    63    38    37    1
    64    38    39   ar
    65    35    34    2
    66   100    99    1
    67    54    55    2
    68    54    53    1
    69    37    36    1
    70   147   146    1
    71    52    53    1
    72    28    27    2
    73    33    34    1
    74    33    36    1
    75    33    32    1
    76    51    49   ar
    77    53    56    1
    78   146   143    1
    79    31    29    1
    80    47    49   ar
    81    99    98    1
    82    99   102    1
    83    27    32   am
    84    27    26    1
    85   141   139   ar
    86   145   144    2
    87   103   102    1
    88   103   104    1
    89   143   144    1
    90   143   142    1
    91    56    57    1
    92    29    26    1
    93    29    30    1
    94   133   132    2
    95    26    25    1
    96   144   153   am
    97   136   137    2
    98   136   135    1
    99   107   106    1
   100    57    58    1
   101   139   140   ar
   102   139   138    1
   103   104   105    1
   104   135   138    1
   105   135   134    1
   106   106   105    2
   107   106   108    1
   108   132   134   am
   109   132   131    1
   110   153   154    1
   111    19    18    2
   112   154   155    1
   113   154   157    1
   114    58    59    1
   115   131   130    1
   116   155   156    2
   117    61    60    1
   118    20    21    1
   119    20    17    1
   120    59    60    2
   121    60    62    1
   122    18    17    1
   123    21    22    1
   124    16    17    1
   125   157   159    1
   126   157   158    1
   127   126   125    2
   128   130   125   am
   129   125   124    1
   130    22    23   ar
   131    22    24   ar
   132   128   127    1
   133   129   127    1
   134    14    13    1
   135    15    13    1
   136   167   165   am
   137   127   124    1
   138   124   123    1
   139    13    10    1
   140   164   165    1
   141   164   161    1
   142   165   166    2
   143   161   160    1
   144   161   162    1
   145    10     9    1
   146    10    11    1
   147   163   162    2
   148    11    12    2
   149     7     6   ar
   150     6     8   ar
   151     6     5    1
   152     3     2    1
   153     3     4    2
   154     2     5    1
   155     2     1    1
