@<TRIPOS>MOLECULE
tmp/1t5wB00.pdb
 220 215 0 0 0
SMALL
GASTEIGER

@<TRIPOS>ATOM
      1  N         32.9690    6.6980   21.8110 N.3     9  TRP9       -0.1241
      2  CA        34.3810    7.0790   21.7170 C.3     9  TRP9        0.1605
      3  C         34.5010    8.0620   20.5760 C.2     9  TRP9        0.2264
      4  O         33.9890    7.8230   19.4850 O.2     9  TRP9       -0.2867
      5  CB        35.2910    5.8780   21.4330 C.3     9  TRP9        0.0550
      6  CG        36.7560    6.2450   21.2470 C.ar    9  TRP9        0.0003
      7  CD1       37.4550    6.2740   20.0680 C.ar    9  TRP9        0.0946
      8  CD2       37.7010    6.5700   22.2760 C.ar    9  TRP9        0.0152
      9  NE1       38.7760    6.5850   20.3050 N.ar    9  TRP9       -0.2442
     10  CE2       38.9520    6.7700   21.6520 C.ar    9  TRP9        0.0810
     11  CE3       37.6100    6.7140   23.6690 C.ar    9  TRP9        0.0012
     12  CZ2       40.1060    7.1010   22.3710 C.ar    9  TRP9        0.0191
     13  CZ3       38.7570    7.0480   24.3890 C.ar    9  TRP9        0.0001
     14  CH2       39.9900    7.2350   23.7360 C.ar    9  TRP9        0.0015
     15  N         37.2240   10.8770   18.4980 N.3    11  LEU11      -0.1245
     16  CA        38.5770   11.3080   18.2240 C.3    11  LEU11       0.1561
     17  C         38.3960   12.5590   17.3640 C.2    11  LEU11       0.2260
     18  O         37.6340   12.5460   16.3860 O.2    11  LEU11      -0.2867
     19  CB        39.3660   10.2530   17.4480 C.3    11  LEU11       0.0270
     20  CG        40.8250   10.6700   17.2010 C.3    11  LEU11       0.0019
     21  CD1       41.5950   10.7300   18.5200 C.3    11  LEU11       0.0001
     22  CD2       41.4880    9.6680   16.2660 C.3    11  LEU11       0.0001
     23  N         40.6310   15.9480   15.5970 N.3    13  PHE13      -0.1241
     24  CA        41.8650   16.6520   15.2810 C.3    13  PHE13       0.1605
     25  C         41.3770   18.0380   14.8690 C.2    13  PHE13       0.2264
     26  O         40.6680   18.1790   13.8680 O.2    13  PHE13      -0.2867
     27  CB        42.6150   15.9920   14.1240 C.3    13  PHE13       0.0534
     28  CG        43.0490   14.5810   14.4070 C.ar   13  PHE13      -0.0203
     29  CD1       42.2160   13.5020   14.0970 C.ar   13  PHE13      -0.0042
     30  CD2       44.2860   14.3240   14.9830 C.ar   13  PHE13      -0.0042
     31  CE1       42.6080   12.1910   14.3550 C.ar   13  PHE13      -0.0003
     32  CE2       44.6940   13.0010   15.2500 C.ar   13  PHE13      -0.0003
     33  CZ        43.8470   11.9360   14.9330 C.ar   13  PHE13      -0.0000
     34  N         47.4890   22.8400   16.5310 N.3    26  LEU26      -0.1245
     35  CA        46.8160   21.5680   16.3470 C.3    26  LEU26       0.1561
     36  C         46.4210   21.0070   17.7030 C.2    26  LEU26       0.2260
     37  O         47.2310   20.9560   18.6330 O.2    26  LEU26      -0.2867
     38  CB        47.7310   20.5720   15.6340 C.3    26  LEU26       0.0270
     39  CG        47.2280   19.1260   15.5230 C.3    26  LEU26       0.0019
     40  CD1       45.9260   19.0540   14.6970 C.3    26  LEU26       0.0001
     41  CD2       48.3160   18.2850   14.8810 C.3    26  LEU26       0.0001
     42  N         44.6590   17.5910   19.2220 N.3    28  GLU28      -0.1245
     43  CA        44.1550   16.2380   19.0210 C.3    28  GLU28       0.1567
     44  C         43.5190   15.8050   20.3430 C.2    28  GLU28       0.2260
     45  O         44.1250   15.9510   21.4080 O.2    28  GLU28      -0.2867
     46  CB        45.3070   15.2870   18.6640 C.3    28  GLU28       0.0388
     47  CG        44.8870   13.8240   18.4720 C.3    28  GLU28       0.1160
     48  CD        46.0780   12.8680   18.3320 C.2    28  GLU28       0.3649
     49  OE1       47.1860   13.3290   17.9800 O.co2  28  GLU28      -0.2457
     50  OE2       45.9020   11.6480   18.5600 O.co2  28  GLU28      -0.2457
     51  N         51.7360   14.4680   24.3440 N.3    47  TYR47      -0.1241
     52  CA        50.4320   14.1110   24.8810 C.3    47  TYR47       0.1605
     53  C         50.3600   14.4020   26.3760 C.2    47  TYR47       0.2264
     54  O         51.3670   14.3340   27.0940 O.2    47  TYR47      -0.2867
     55  CB        50.1510   12.6270   24.6390 C.3    47  TYR47       0.0534
     56  CG        49.7870   12.2870   23.2040 C.ar   47  TYR47      -0.0201
     57  CD1       48.4720   12.3980   22.7430 C.ar   47  TYR47      -0.0009
     58  CD2       50.7670   11.8720   22.2970 C.ar   47  TYR47      -0.0009
     59  CE1       48.1490   12.1030   21.4160 C.ar   47  TYR47       0.0417
     60  CE2       50.4530   11.5790   20.9820 C.ar   47  TYR47       0.0417
     61  CZ        49.1540   11.6940   20.5500 C.ar   47  TYR47       0.1957
     62  OH        48.8710   11.3850   19.2410 O.3    47  TYR47      -0.2866
     63  N         47.4520    6.1260   31.1390 N.3    56  PRO56      -0.2102
     64  CA        48.1570    5.0590   30.4230 C.3    56  PRO56       0.1504
     65  C         48.5520    5.4190   28.9900 C.2    56  PRO56       0.2575
     66  O         49.6840    5.1850   28.5670 O.2    56  PRO56      -0.2718
     67  CB        47.1580    3.8980   30.4650 C.3    56  PRO56       0.0282
     68  CG        46.3940    4.1450   31.7280 C.3    56  PRO56       0.0208
     69  CD        46.1660    5.6300   31.6690 C.3    56  PRO56       0.0893
     70  N         47.6070    5.9880   28.2500 N.am   57  ASP57      -0.1974
     71  CA        47.8360    6.3660   26.8630 C.3    57  ASP57       0.1708
     72  C         48.8650    7.4750   26.6600 C.2    57  ASP57       0.2293
     73  O         49.7330    7.3550   25.7980 O.2    57  ASP57      -0.2864
     74  CB        46.5140    6.7680   26.2160 C.3    57  ASP57       0.1436
     75  CG        45.4210    5.7660   26.4820 C.2    57  ASP57       0.3671
     76  OD1       45.6770    4.5530   26.3350 O.co2  57  ASP57      -0.2456
     77  OD2       44.3040    6.1900   26.8370 O.co2  57  ASP57      -0.2456
     78  N         51.3230    8.3260   28.5970 N.3    59  GLU59      -0.1231
     79  CA        52.6220    7.7430   28.9350 C.3    59  GLU59       0.1699
     80  C         53.1090    6.8530   27.7970 C.2    59  GLU59       0.2592
     81  O         54.2770    6.8840   27.4040 O.2    59  GLU59      -0.2718
     82  CB        52.5160    6.9170   30.2220 C.3    59  GLU59       0.0402
     83  CG        52.7630    7.7050   31.5040 C.3    59  GLU59       0.1161
     84  CD        52.4780    6.8870   32.7520 C.2    59  GLU59       0.3649
     85  OE1       52.9080    7.3030   33.8490 O.co2  59  GLU59      -0.2457
     86  OE2       51.8160    5.8320   32.6380 O.co2  59  GLU59      -0.2457
     87  N         52.1880    6.0640   27.2660 N.am   60  TYR60      -0.1962
     88  CA        52.4920    5.1550   26.1810 C.3    60  TYR60       0.1771
     89  C         52.8670    5.8720   24.8850 C.2    60  TYR60       0.2619
     90  O         53.9590    5.6790   24.3550 O.2    60  TYR60      -0.2715
     91  CB        51.2900    4.2370   25.9490 C.3    60  TYR60       0.0574
     92  CG        51.3720    3.4000   24.6980 C.ar   60  TYR60      -0.0198
     93  CD1       52.5710    2.8070   24.3140 C.ar   60  TYR60      -0.0009
     94  CD2       50.2410    3.1720   23.9150 C.ar   60  TYR60      -0.0009
     95  CE1       52.6440    2.0070   23.1810 C.ar   60  TYR60       0.0417
     96  CE2       50.2990    2.3720   22.7810 C.ar   60  TYR60       0.0417
     97  CZ        51.5060    1.7910   22.4180 C.ar   60  TYR60       0.1957
     98  OH        51.5800    0.9920   21.2980 O.3    60  TYR60      -0.2866
     99  N         51.9570    6.6940   24.3700 N.am   61  TRP61      -0.1974
    100  CA        52.2140    7.4200   23.1350 C.3    61  TRP61       0.1640
    101  C         53.4290    8.3310   23.2320 C.2    61  TRP61       0.2290
    102  O         54.1190    8.5450   22.2390 O.2    61  TRP61      -0.2864
    103  CB        50.9730    8.2250   22.7220 C.3    61  TRP61       0.0576
    104  CG        49.7730    7.3600   22.4670 C.ar   61  TRP61       0.0006
    105  CD1       49.7740    6.0290   22.1210 C.ar   61  TRP61       0.0946
    106  CD2       48.3940    7.7510   22.5380 C.ar   61  TRP61       0.0152
    107  NE1       48.4810    5.5710   21.9800 N.ar   61  TRP61      -0.2442
    108  CE2       47.6140    6.6070   22.2300 C.ar   61  TRP61       0.0810
    109  CE3       47.7390    8.9540   22.8310 C.ar   61  TRP61       0.0012
    110  CZ2       46.2200    6.6330   22.2070 C.ar   61  TRP61       0.0191
    111  CZ3       46.3470    8.9790   22.8080 C.ar   61  TRP61       0.0001
    112  CH2       45.6040    7.8250   22.4980 C.ar   61  TRP61       0.0015
    113  N         56.8840    6.8270   22.2100 N.3    64  GLN64      -0.1245
    114  CA        57.1740    6.5340   20.8070 C.3    64  GLN64       0.1566
    115  C         57.5980    7.8180   20.1000 C.2    64  GLN64       0.2260
    116  O         56.7510    8.5860   19.6460 O.2    64  GLN64      -0.2867
    117  CB        55.9320    5.9830   20.1200 C.3    64  GLN64       0.0367
    118  CG        55.3760    4.7270   20.7410 C.3    64  GLN64       0.0905
    119  CD        53.9350    4.4970   20.3320 C.2    64  GLN64       0.2608
    120  OE1       53.6070    4.4820   19.1430 O.2    64  GLN64      -0.2717
    121  NE2       53.0610    4.3230   21.3180 N.am   64  GLN64      -0.0878
    122  N         55.8680    8.7240   16.7250 N.3    67  LEU67      -0.1245
    123  CA        54.5470    9.3200   16.7950 C.3    67  LEU67       0.1561
    124  C         54.6590   10.8050   17.1600 C.2    67  LEU67       0.2260
    125  O         54.0470   11.6600   16.5190 O.2    67  LEU67      -0.2867
    126  CB        53.7010    8.5810   17.8310 C.3    67  LEU67       0.0270
    127  CG        52.2960    9.1380   18.0670 C.3    67  LEU67       0.0019
    128  CD1       51.4770    9.0510   16.7710 C.3    67  LEU67       0.0001
    129  CD2       51.6190    8.3640   19.1940 C.3    67  LEU67       0.0001
    130  N         55.9630   12.8810   14.1770 N.3    70  GLN70      -0.1231
    131  CA        54.9420   13.0080   13.1420 C.3    70  GLN70       0.1698
    132  C         53.8730   14.0030   13.5920 C.2    70  GLN70       0.2592
    133  O         53.4420   14.8660   12.8210 O.2    70  GLN70      -0.2718
    134  CB        54.3090   11.6400   12.8580 C.3    70  GLN70       0.0381
    135  CG        53.2650   11.6050   11.7360 C.3    70  GLN70       0.0905
    136  CD        51.9120   12.1990   12.1300 C.2    70  GLN70       0.2608
    137  OE1       51.3960   11.9470   13.2240 O.2    70  GLN70      -0.2717
    138  NE2       51.3280   12.9820   11.2310 N.am   70  GLN70      -0.0878
    139  N         53.4530   13.8820   14.8440 N.am   71  ARG71      -0.1980
    140  CA        52.4350   14.7680   15.3890 C.3    71  ARG71       0.1597
    141  C         52.9260   16.2220   15.4370 C.2    71  ARG71       0.2287
    142  O         52.1800   17.1490   15.1310 O.2    71  ARG71      -0.2864
    143  CB        52.0340   14.2880   16.7850 C.3    71  ARG71       0.0334
    144  CG        50.5880   13.8420   16.9170 C.3    71  ARG71       0.0492
    145  CD        50.1800   12.8700   15.8280 C.3    71  ARG71       0.2205
    146  NE        48.9260   12.1840   16.1440 N.pl3  71  ARG71      -0.0865
    147  CZ        48.4570   11.1450   15.4620 C.cat  71  ARG71       0.5346
    148  NH1       47.3200   10.5730   15.8160 N.pl3  71  ARG71       0.1354
    149  NH2       49.1250   10.6780   14.4190 N.pl3  71  ARG71       0.1354
    150  N         52.6060   17.7520   12.0570 N.3    74  ALA74      -0.1245
    151  CA        51.2660   17.7400   11.4800 C.3    74  ALA74       0.1562
    152  C         50.7570   19.1650   11.2600 C.2    74  ALA74       0.2260
    153  O         49.9470   19.4270   10.3660 O.2    74  ALA74      -0.2867
    154  CB        50.3090   16.9630   12.3890 C.3    74  ALA74       0.0290
    155  N         52.2550   19.3880    7.7110 N.3    77  THR77      -0.1203
    156  CA        51.8370   18.3280    6.7910 C.3    77  THR77       0.1994
    157  C         50.3480   18.0250    6.7820 C.2    77  THR77       0.2617
    158  O         49.8320   17.4260    5.8370 O.2    77  THR77      -0.2717
    159  CB        52.5620   17.0050    7.1050 C.3    77  THR77       0.1784
    160  OG1       52.1310   16.5330    8.3840 O.3    77  THR77      -0.2211
    161  CG2       54.0900   17.2020    7.1250 C.3    77  THR77       0.0376
    162  N         49.6560   18.4270    7.8420 N.am   78  TYR78      -0.1975
    163  CA        48.2350   18.1600    7.9530 C.3    78  TYR78       0.1639
    164  C         47.3990   19.4400    7.9460 C.2    78  TYR78       0.2290
    165  O         46.6340   19.6920    7.0150 O.2    78  TYR78      -0.2864
    166  CB        47.9950   17.3560    9.2310 C.3    78  TYR78       0.0560
    167  CG        46.5460   17.1270    9.5940 C.ar   78  TYR78      -0.0198
    168  CD1       45.7030   16.3660    8.7750 C.ar   78  TYR78      -0.0009
    169  CD2       46.0320   17.6150   10.7950 C.ar   78  TYR78      -0.0009
    170  CE1       44.3870   16.0950    9.1560 C.ar   78  TYR78       0.0417
    171  CE2       44.7260   17.3470   11.1840 C.ar   78  TYR78       0.0417
    172  CZ        43.9140   16.5900   10.3680 C.ar   78  TYR78       0.1957
    173  OH        42.6340   16.3150   10.7890 O.3    78  TYR78      -0.2866
    174  N         48.3740   21.9420    5.1120 N.3    81  HIS81      -0.1226
    175  CA        48.0640   21.2790    3.8480 C.3    81  HIS81       0.1752
    176  C         46.5610   21.3050    3.5510 C.2    81  HIS81       0.2596
    177  O         46.1500   21.6660    2.4520 O.2    81  HIS81      -0.2718
    178  CB        48.5530   19.8280    3.8580 C.3    81  HIS81       0.0759
    179  CG        48.1030   19.0410    2.6680 C.ar   81  HIS81       0.0818
    180  ND1       48.7580   19.0790    1.4570 N.ar   81  HIS81      -0.2268
    181  CD2       47.0140   18.2590    2.4800 C.ar   81  HIS81       0.1154
    182  CE1       48.0920   18.3600    0.5730 C.ar   81  HIS81       0.1986
    183  NE2       47.0280   17.8530    1.1680 N.ar   81  HIS81      -0.2212
    184  N         45.7380   20.9290    4.5230 N.am   82  ASN82      -0.1974
    185  CA        44.2960   20.9150    4.2990 C.3    82  ASN82       0.1688
    186  C         43.7130   22.3060    4.1090 C.2    82  ASN82       0.2292
    187  O         42.7790   22.4980    3.3270 O.2    82  ASN82      -0.2864
    188  CB        43.5840   20.1680    5.4240 C.3    82  ASN82       0.1181
    189  CG        43.8460   18.6690    5.3700 C.2    82  ASN82       0.2629
    190  OD1       44.0890   18.1150    4.2950 O.2    82  ASN82      -0.2716
    191  ND2       43.7880   18.0080    6.5180 N.am   82  ASN82      -0.0877
    192  N         44.3380   23.0210    0.5450 N.3    85  VAL85      -0.1231
    193  CA        43.4800   22.2100   -0.3090 C.3    85  VAL85       0.1692
    194  C         42.0590   22.7660   -0.4160 C.2    85  VAL85       0.2592
    195  O         41.4980   22.8320   -1.5030 O.2    85  VAL85      -0.2718
    196  CB        43.3900   20.7470    0.2100 C.3    85  VAL85       0.0266
    197  CG1       42.3500   19.9660   -0.5960 C.3    85  VAL85       0.0020
    198  CG2       44.7520   20.0770    0.1120 C.3    85  VAL85       0.0020
    199  N         41.4750   23.1660    0.7100 N.am   86  GLY86      -0.1957
    200  CA        40.1080   23.6630    0.6680 C.3    86  GLY86       0.1869
    201  C         39.9050   25.1630    0.6420 C.2    86  GLY86       0.2309
    202  O         38.7750   25.6280    0.5800 O.2    86  GLY86      -0.2863
    203  N         37.1560   26.9720   -1.8210 N.3    89  PHE89      -0.1227
    204  CA        35.7170   26.8510   -1.5980 C.3    89  PHE89       0.1736
    205  C         35.2440   26.9820   -0.1480 C.2    89  PHE89       0.2596
    206  O         34.0600   26.8730    0.1270 O.2    89  PHE89      -0.2718
    207  CB        35.1820   25.5390   -2.2030 C.3    89  PHE89       0.0547
    208  CG        35.8870   24.3000   -1.7170 C.ar   89  PHE89      -0.0202
    209  CD1       37.0380   23.8470   -2.3490 C.ar   89  PHE89      -0.0042
    210  CD2       35.3850   23.5690   -0.6430 C.ar   89  PHE89      -0.0042
    211  CE1       37.6790   22.6760   -1.9230 C.ar   89  PHE89      -0.0003
    212  CE2       36.0120   22.4050   -0.2090 C.ar   89  PHE89      -0.0003
    213  CZ        37.1600   21.9530   -0.8470 C.ar   89  PHE89      -0.0000
    214  N         36.1550   27.2240    0.7780 N.am   90  THR90      -0.1953
    215  CA        35.7550   27.3710    2.1700 C.3    90  THR90       0.1897
    216  C         36.1370   28.7490    2.6630 C.2    90  THR90       0.2313
    217  O         35.3010   29.6300    2.8910 O.2    90  THR90      -0.2863
    218  CB        36.4650   26.3320    3.0780 C.3    90  THR90       0.1794
    219  OG1       37.8850   26.4440    2.9190 O.3    90  THR90      -0.2208
    220  CG2       36.0350   24.9230    2.7070 C.3    90  THR90       0.0378
@<TRIPOS>BOND
     1   209   211   ar
     2   209   208   ar
     3   207   208    1
     4   207   204    1
     5   211   213   ar
     6   203   204    1
     7   208   210   ar
     8   204   205    1
     9   195   194    2
    10   213   212   ar
    11   210   212   ar
    12   197   196    1
    13   194   193    1
    14   194   199   am
    15   193   196    1
    16   193   192    1
    17   205   206    2
    18   205   214   am
    19   198   196    1
    20   182   183   ar
    21   182   180   ar
    22   202   201    2
    23   201   200    1
    24   200   199    1
    25   214   215    1
    26   183   181   ar
    27   180   179   ar
    28   215   216    1
    29   215   218    1
    30   177   176    2
    31   181   179   ar
    32   216   217    2
    33   179   178    1
    34   220   218    1
    35   219   218    1
    36   187   186    2
    37   176   175    1
    38   176   184   am
    39   175   178    1
    40   175   174    1
    41   186   185    1
    42   190   189    2
    43   185   184    1
    44   185   188    1
    45   189   188    1
    46   189   191   am
    47   158   157    2
    48   157   156    1
    49   157   162   am
    50   156   159    1
    51   156   155    1
    52   165   164    2
    53   159   161    1
    54   159   160    1
    55   162   163    1
    56   164   163    1
    57   163   166    1
    58   168   170   ar
    59   168   167   ar
    60   170   172   ar
    61   166   167    1
    62   167   169   ar
    63   153   152    2
    64   172   173    1
    65   172   171   ar
    66   169   171   ar
    67   138   136   am
    68   152   151    1
    69   151   150    1
    70   151   154    1
    71   135   136    1
    72   135   134    1
    73   136   137    2
    74   133   132    2
    75   134   131    1
    76   131   132    1
    77   131   130    1
    78   132   139   am
    79    26    25    2
    80    29    31   ar
    81    29    28   ar
    82    27    28    1
    83    27    24    1
    84    31    33   ar
    85    28    30   ar
    86   149   147    1
    87    40    39    1
    88   139   140    1
    89    25    24    1
    90    41    39    1
    91    33    32   ar
    92    30    32   ar
    93   142   141    2
    94    24    23    1
    95   140   141    1
    96   140   143    1
    97   147   148    1
    98   147   146    2
    99    39    38    1
   100    38    35    1
   101   145   146    1
   102   145   144    1
   103    22    20    1
   104    35    34    1
   105    35    36    1
   106    18    17    2
   107   125   124    2
   108   122   123    1
   109   128   127    1
   110   143   144    1
   111   123   124    1
   112   123   126    1
   113    20    19    1
   114    20    21    1
   115    17    16    1
   116    19    16    1
   117    36    37    2
   118   126   127    1
   119    49    48   ar
   120   127   129    1
   121    16    15    1
   122    48    47    1
   123    48    50   ar
   124    47    46    1
   125    46    43    1
   126    43    42    1
   127    43    44    1
   128   120   119    2
   129    62    61    1
   130     4     3    2
   131   116   115    2
   132     7     9   ar
   133     7     6   ar
   134   115   114    1
   135   117   118    1
   136   117   114    1
   137     9    10   ar
   138   119   118    1
   139   119   121   am
   140    44    45    2
   141    61    60   ar
   142    61    59   ar
   143     3     2    1
   144   114   113    1
   145    60    58   ar
   146     6     5    1
   147     6     8   ar
   148    98    97    1
   149    59    57   ar
   150     5     2    1
   151    10     8   ar
   152    10    12   ar
   153     2     1    1
   154   107   105   ar
   155   107   108   ar
   156   105   104   ar
   157   110   108   ar
   158   110   112   ar
   159   108   106   ar
   160   102   101    2
   161     8    11   ar
   162    58    56   ar
   163    12    14   ar
   164    97    96   ar
   165    97    95   ar
   166   104   106   ar
   167   104   103    1
   168   112   111   ar
   169   106   109   ar
   170   103   100    1
   171    57    56   ar
   172    96    94   ar
   173   111   109   ar
   174   100   101    1
   175   100    99    1
   176    95    93   ar
   177    56    55    1
   178    11    13   ar
   179    14    13   ar
   180    94    92   ar
   181    93    92   ar
   182    51    52    1
   183    90    89    2
   184    99    89   am
   185    55    52    1
   186    92    91    1
   187    52    53    1
   188    89    88    1
   189    73    72    2
   190    91    88    1
   191    88    87    1
   192    74    75    1
   193    74    71    1
   194    76    75   ar
   195    53    54    2
   196    75    77   ar
   197    72    71    1
   198    71    70    1
   199    87    80   am
   200    81    80    2
   201    80    79    1
   202    70    65   am
   203    66    65    2
   204    78    79    1
   205    79    82    1
   206    65    64    1
   207    82    83    1
   208    64    67    1
   209    64    63    1
   210    67    68    1
   211    63    69    1
   212    83    84    1
   213    69    68    1
   214    86    84   ar
   215    84    85   ar
