@<TRIPOS>MOLECULE
tmp/1t5zA00.pdb
 150 141 0 0 0
SMALL
GASTEIGER

@<TRIPOS>ATOM
      1  N         -3.5990   56.7980    9.4640 N.3    44  LEU44      -0.1231
      2  CA        -3.7660   57.1190   10.8630 C.3    44  LEU44       0.1693
      3  C         -4.2070   55.8700   11.6130 C.2    44  LEU44       0.2591
      4  O         -3.6940   55.5580   12.6920 O.2    44  LEU44      -0.2718
      5  CB        -4.8020   58.2240   11.0240 C.3    44  LEU44       0.0284
      6  CG        -4.8040   58.9250   12.3920 C.3    44  LEU44       0.0019
      7  CD1       -3.4930   59.6830   12.5890 C.3    44  LEU44       0.0001
      8  CD2       -5.9910   59.8840   12.4770 C.3    44  LEU44       0.0001
      9  N         -5.1520   55.1470   11.0240 N.am   45  VAL45      -0.1980
     10  CA        -5.6720   53.9240   11.6230 C.3    45  VAL45       0.1595
     11  C         -4.5140   52.9780   11.9460 C.2    45  VAL45       0.2287
     12  O         -4.4070   52.4750   13.0620 O.2    45  VAL45      -0.2864
     13  CB        -6.6610   53.2230   10.6590 C.3    45  VAL45       0.0276
     14  CG1       -7.0950   51.8880   11.2290 C.3    45  VAL45       0.0022
     15  CG2       -7.8720   54.1100   10.4280 C.3    45  VAL45       0.0022
     16  N         -2.2510   54.0780   14.7690 N.3    48  VAL48      -0.1231
     17  CA        -2.8190   53.8570   16.1030 C.3    48  VAL48       0.1692
     18  C         -2.5470   52.4260   16.5440 C.2    48  VAL48       0.2591
     19  O         -2.0600   52.1840   17.6420 O.2    48  VAL48      -0.2718
     20  CB        -4.3510   54.0890   16.1290 C.3    48  VAL48       0.0266
     21  CG1       -4.9120   53.6450   17.4660 C.3    48  VAL48       0.0020
     22  CG2       -4.6600   55.5450   15.8980 C.3    48  VAL48       0.0020
     23  N         -2.8710   51.4900   15.6620 N.am   49  LYS49      -0.1980
     24  CA        -2.6790   50.0780   15.9080 C.3    49  LYS49       0.1596
     25  C         -1.2060   49.7740   16.1230 C.2    49  LYS49       0.2287
     26  O         -0.8520   48.9950   17.0030 O.2    49  LYS49      -0.2864
     27  CB        -3.2540   49.2940   14.7330 C.3    49  LYS49       0.0298
     28  CG        -4.7910   49.3970   14.6750 C.3    49  LYS49       0.0038
     29  CD        -5.3790   49.1580   13.2760 C.3    49  LYS49       0.0206
     30  CE        -5.1550   47.7350   12.7900 C.3    49  LYS49       0.1093
     31  NZ        -5.7070   47.5230   11.4170 N.3    49  LYS49      -0.1314
     32  N         -0.1780   51.3520   19.6670 N.3    52  LYS52      -0.1245
     33  CA        -0.7740   50.6220   20.7890 C.3    52  LYS52       0.1561
     34  C         -0.0060   49.3300   21.0510 C.2    52  LYS52       0.2260
     35  O         -0.0580   48.7790   22.1490 O.2    52  LYS52      -0.2867
     36  CB        -2.2250   50.2570   20.4780 C.3    52  LYS52       0.0271
     37  CG        -3.1660   51.4180   20.3030 C.3    52  LYS52       0.0035
     38  CD        -3.7540   51.8130   21.6310 C.3    52  LYS52       0.0206
     39  CE        -5.2770   51.9330   21.5670 C.3    52  LYS52       0.1093
     40  NZ        -5.9750   50.6610   21.2190 N.3    52  LYS52      -0.1314
     41  N          4.2590   51.1130   25.6300 N.3    57  PHE57      -0.1241
     42  CA         3.4160   52.2230   25.2380 C.3    57  PHE57       0.1605
     43  C          2.1760   52.3600   26.1130 C.2    57  PHE57       0.2264
     44  O          1.7090   53.4730   26.3680 O.2    57  PHE57      -0.2867
     45  CB         2.9800   52.0600   23.7890 C.3    57  PHE57       0.0534
     46  CG         2.2170   53.2310   23.2580 C.ar   57  PHE57      -0.0203
     47  CD1        2.8740   54.4010   22.9030 C.ar   57  PHE57      -0.0042
     48  CD2        0.8320   53.1810   23.1500 C.ar   57  PHE57      -0.0042
     49  CE1        2.1630   55.4920   22.4530 C.ar   57  PHE57      -0.0003
     50  CE2        0.1180   54.2740   22.6990 C.ar   57  PHE57      -0.0003
     51  CZ         0.7830   55.4290   22.3520 C.ar   57  PHE57      -0.0000
     52  N         -3.5230   57.0520   29.4200 N.3    62  VAL62      -0.1231
     53  CA        -4.3890   56.9470   28.2530 C.3    62  VAL62       0.1692
     54  C         -4.5140   58.2560   27.4580 C.2    62  VAL62       0.2592
     55  O         -4.5460   58.2370   26.2270 O.2    62  VAL62      -0.2718
     56  CB        -5.7980   56.4520   28.6570 C.3    62  VAL62       0.0266
     57  CG1       -6.4050   57.4030   29.6550 C.3    62  VAL62       0.0020
     58  CG2       -6.6870   56.3270   27.4230 C.3    62  VAL62       0.0020
     59  N         -4.5700   59.3890   28.1540 N.am   63  ASP63      -0.1974
     60  CA        -4.6900   60.6840   27.4830 C.3    63  ASP63       0.1709
     61  C         -3.4310   61.0760   26.7080 C.2    63  ASP63       0.2293
     62  O         -3.5120   61.6550   25.6180 O.2    63  ASP63      -0.2864
     63  CB        -5.0290   61.7920   28.4870 C.3    63  ASP63       0.1436
     64  CG        -6.4310   61.6500   29.0670 C.2    63  ASP63       0.3671
     65  OD1       -7.3390   61.1650   28.3410 O.co2  63  ASP63      -0.2456
     66  OD2       -6.6280   62.0340   30.2450 O.co2  63  ASP63      -0.2456
     67  N         -1.4000   58.9640   25.5760 N.3    65  GLN65      -0.1231
     68  CA        -1.2860   58.0090   24.5030 C.3    65  GLN65       0.1698
     69  C         -1.9030   58.6050   23.2470 C.2    65  GLN65       0.2592
     70  O         -1.3200   58.5350   22.1730 O.2    65  GLN65      -0.2718
     71  CB        -2.0000   56.7290   24.8800 C.3    65  GLN65       0.0381
     72  CG        -1.3060   55.9730   25.9780 C.3    65  GLN65       0.0905
     73  CD        -1.8360   54.5730   26.0800 C.2    65  GLN65       0.2608
     74  OE1       -1.9440   53.8800   25.0780 O.2    65  GLN65      -0.2717
     75  NE2       -2.1720   54.1460   27.2850 N.am   65  GLN65      -0.0878
     76  N         -3.0820   59.1990   23.3890 N.am   66  MET66      -0.1979
     77  CA        -3.7570   59.8070   22.2550 C.3    66  MET66       0.1605
     78  C         -3.0860   61.1100   21.8390 C.2    66  MET66       0.2287
     79  O         -3.1160   61.4930   20.6700 O.2    66  MET66      -0.2864
     80  CB        -5.2170   60.0780   22.5980 C.3    66  MET66       0.0413
     81  CG        -5.9740   58.8420   23.0210 C.3    66  MET66       0.0598
     82  SD        -7.7190   59.2050   23.3050 S.3    66  MET66      -0.1393
     83  CE        -7.6660   59.7680   25.0040 C.3    66  MET66       0.0692
     84  N          0.2050   60.8420   19.6150 N.3    69  ILE69      -0.1231
     85  CA        -0.1800   60.3700   18.2980 C.3    69  ILE69       0.1692
     86  C         -0.7090   61.5280   17.4660 C.2    69  ILE69       0.2591
     87  O         -0.3540   61.6800   16.2990 O.2    69  ILE69      -0.2718
     88  CB        -1.2570   59.2760   18.3850 C.3    69  ILE69       0.0266
     89  CG1       -0.6370   57.9910   18.9270 C.3    69  ILE69       0.0019
     90  CG2       -1.8640   59.0330   17.0180 C.3    69  ILE69       0.0020
     91  CD1       -1.6300   56.8570   19.1060 C.3    69  ILE69       0.0001
     92  N         -1.5430   62.3590   18.0740 N.am   70  GLN70      -0.1979
     93  CA        -2.1000   63.4860   17.3530 C.3    70  GLN70       0.1601
     94  C         -1.0830   64.5770   17.0500 C.2    70  GLN70       0.2287
     95  O         -1.3110   65.4040   16.1690 O.2    70  GLN70      -0.2864
     96  CB        -3.2740   64.0520   18.1250 C.3    70  GLN70       0.0394
     97  CG        -4.3050   62.9920   18.3510 C.3    70  GLN70       0.0908
     98  CD        -5.4090   63.4480   19.2480 C.2    70  GLN70       0.2608
     99  OE1       -6.2970   64.1770   18.8220 O.2    70  GLN70      -0.2717
    100  NE2       -5.3570   63.0340   20.5130 N.am   70  GLN70      -0.0878
    101  N        -13.1580   62.9950    8.1260 N.3   225  GLU225     -0.1231
    102  CA       -13.5740   63.3730    9.4740 C.3   225  GLU225      0.1699
    103  C        -12.4440   63.6120   10.4560 C.2   225  GLU225      0.2592
    104  O        -12.1940   64.7480   10.8510 O.2   225  GLU225     -0.2718
    105  CB       -14.4990   62.3110   10.0610 C.3   225  GLU225      0.0402
    106  CG       -15.8700   62.2570    9.4100 C.3   225  GLU225      0.1161
    107  CD       -16.5540   63.6110    9.3850 C.2   225  GLU225      0.3649
    108  OE1      -16.6140   64.2600   10.4590 O.co2 225  GLU225     -0.2457
    109  OE2      -17.0310   64.0130    8.2950 O.co2 225  GLU225     -0.2457
    110  N        -11.7760   62.5430   10.8730 N.am  226  MET226     -0.1979
    111  CA       -10.6870   62.6860   11.8320 C.3   226  MET226      0.1605
    112  C         -9.6720   63.7200   11.4040 C.2   226  MET226      0.2287
    113  O         -9.2610   64.5600   12.2030 O.2   226  MET226     -0.2864
    114  CB        -9.9400   61.3740   12.0370 C.3   226  MET226      0.0413
    115  CG       -10.6900   60.3090   12.7940 C.3   226  MET226      0.0598
    116  SD        -9.5140   59.0390   13.2500 S.3   226  MET226     -0.1393
    117  CE        -9.0470   58.3670   11.6150 C.3   226  MET226      0.0692
    118  N        -10.6740   67.1760   12.1250 N.3   229  GLU229     -0.1231
    119  CA       -10.6950   67.3230   13.5770 C.3   229  GLU229      0.1699
    120  C         -9.3050   67.5170   14.1800 C.2   229  GLU229      0.2592
    121  O         -9.0800   68.4430   14.9590 O.2   229  GLU229     -0.2718
    122  CB       -11.3710   66.1070   14.2130 C.3   229  GLU229      0.0402
    123  CG       -11.7800   66.3350   15.6520 C.3   229  GLU229      0.1161
    124  CD       -12.6390   65.2010   16.2000 C.2   229  GLU229      0.3649
    125  OE1      -12.1080   64.0830   16.3920 O.co2 229  GLU229     -0.2457
    126  OE2      -13.8530   65.4250   16.4270 O.co2 229  GLU229     -0.2457
    127  N         -8.3740   66.6500   13.8090 N.am  230  ILE230     -0.1980
    128  CA        -7.0190   66.7310   14.3240 C.3   230  ILE230      0.1595
    129  C         -6.3230   68.0100   13.9070 C.2   230  ILE230      0.2287
    130  O         -5.6700   68.6800   14.7120 O.2   230  ILE230     -0.2864
    131  CB        -6.1970   65.5410   13.8290 C.3   230  ILE230      0.0276
    132  CG1       -6.7900   64.2590   14.4150 C.3   230  ILE230      0.0022
    133  CG2       -4.7220   65.6990   14.2130 C.3   230  ILE230      0.0022
    134  CD1       -6.2250   62.9960   13.8150 C.3   230  ILE230      0.0001
    135  N         -7.9380   70.9900   15.7880 N.3   233  VAL233     -0.1231
    136  CA        -7.8240   70.9960   17.2440 C.3   233  VAL233      0.1692
    137  C         -6.4060   70.7440   17.7610 C.2   233  VAL233      0.2591
    138  O         -6.0070   71.3290   18.7620 O.2   233  VAL233     -0.2718
    139  CB        -8.7510   69.9360   17.8980 C.3   233  VAL233      0.0266
    140  CG1       -8.6820   70.0560   19.4010 C.3   233  VAL233      0.0020
    141  CG2      -10.1750   70.0950   17.4250 C.3   233  VAL233      0.0020
    142  N         -5.6450   69.8930   17.0850 N.am  234  GLN234     -0.1979
    143  CA        -4.2990   69.5720   17.5450 C.3   234  GLN234      0.1601
    144  C         -3.2000   70.3330   16.8330 C.2   234  GLN234      0.2287
    145  O         -2.3240   70.9130   17.4710 O.2   234  GLN234     -0.2864
    146  CB        -4.0590   68.0810   17.3850 C.3   234  GLN234      0.0394
    147  CG        -5.0780   67.2430   18.0980 C.3   234  GLN234      0.0908
    148  CD        -4.9790   67.3890   19.5920 C.2   234  GLN234      0.2608
    149  OE1       -4.1210   68.1130   20.1080 O.2   234  GLN234     -0.2717
    150  NE2       -5.8500   66.6920   20.3050 N.am  234  GLN234     -0.0878
@<TRIPOS>BOND
     1   101   102    1
     2   109   107   ar
     3   107   106    1
     4   107   108   ar
     5   106   105    1
     6     1     2    1
     7   102   105    1
     8   102   103    1
     9    15    13    1
    10   103   104    2
    11   103   110   am
    12    13    14    1
    13    13    10    1
    14     2     5    1
    15     2     3    1
    16   110   111    1
    17     9     3   am
    18     9    10    1
    19     5     6    1
    20   112   111    1
    21   112   113    2
    22    31    30    1
    23     3     4    2
    24   117   116    1
    25    10    11    1
    26   111   114    1
    27    11    12    2
    28   114   115    1
    29   118   119    1
    30     6     8    1
    31     6     7    1
    32    30    29    1
    33   115   116    1
    34    29    28    1
    35   119   120    1
    36   119   122    1
    37   127   120   am
    38   127   128    1
    39   134   132    1
    40   131   133    1
    41   131   128    1
    42   131   132    1
    43   129   128    1
    44   129   130    2
    45   120   121    2
    46   122   123    1
    47    28    27    1
    48    27    24    1
    49    16    17    1
    50   123   124    1
    51    23    24    1
    52    23    18   am
    53   135   136    1
    54    22    20    1
    55    24    25    1
    56    17    20    1
    57    17    18    1
    58    25    26    2
    59    20    21    1
    60    95    94    2
    61   124   125   ar
    62   124   126   ar
    63    87    86    2
    64    18    19    2
    65   144   145    2
    66   144   143    1
    67    90    88    1
    68    94    93    1
    69   142   143    1
    70   142   137   am
    71   136   137    1
    72   136   139    1
    73    93    92    1
    74    93    96    1
    75   146   143    1
    76   146   147    1
    77   141   139    1
    78    86    92   am
    79    86    85    1
    80   137   138    2
    81   139   140    1
    82   147   148    1
    83    96    97    1
    84    85    88    1
    85    85    84    1
    86    97    98    1
    87    88    89    1
    88    99    98    2
    89    89    91    1
    90    98   100   am
    91   148   149    2
    92   148   150   am
    93    32    33    1
    94    37    36    1
    95    37    38    1
    96    36    33    1
    97    79    78    2
    98    33    34    1
    99    34    35    2
   100    40    39    1
   101    39    38    1
   102    78    77    1
   103    70    69    2
   104    77    80    1
   105    77    76    1
   106    51    49   ar
   107    51    50   ar
   108    49    47   ar
   109    80    81    1
   110    50    48   ar
   111    47    46   ar
   112    81    82    1
   113    48    46   ar
   114    69    76   am
   115    69    68    1
   116    46    45    1
   117    82    83    1
   118    45    42    1
   119    68    71    1
   120    68    67    1
   121    71    72    1
   122    74    73    2
   123    42    41    1
   124    42    43    1
   125    62    61    2
   126    72    73    1
   127    73    75   am
   128    43    44    2
   129    55    54    2
   130    61    60    1
   131    58    56    1
   132    54    59   am
   133    54    53    1
   134    60    59    1
   135    60    63    1
   136    53    56    1
   137    53    52    1
   138    65    64   ar
   139    63    64    1
   140    56    57    1
   141    64    66   ar
