@<TRIPOS>MOLECULE
tmp/1t64A00.pdb
 163 162 0 0 0
SMALL
GASTEIGER

@<TRIPOS>ATOM
      1  N         68.6260   66.2840   21.2410 N.3    20  LYS20      -0.1245
      2  CA        67.3570   67.0040   21.0510 C.3    20  LYS20       0.1561
      3  C         66.6570   66.8320   19.6830 C.2    20  LYS20       0.2260
      4  O         65.4290   66.9700   19.6040 O.2    20  LYS20      -0.2867
      5  CB        67.5060   68.4960   21.4200 C.3    20  LYS20       0.0271
      6  CG        66.1730   69.1250   21.8040 C.3    20  LYS20       0.0035
      7  CD        66.4090   70.5940   22.1440 C.3    20  LYS20       0.0206
      8  CE        66.3420   71.5580   20.9720 C.3    20  LYS20       0.1093
      9  NZ        67.4320   71.3740   19.9660 N.3    20  LYS20      -0.1314
     10  N         68.3480   77.9410   16.4620 N.3    87  TYR87      -0.1227
     11  CA        67.1680   77.1550   16.8170 C.3    87  TYR87       0.1736
     12  C         66.8380   76.0610   15.8180 C.2    87  TYR87       0.2595
     13  O         66.6480   74.9230   16.2240 O.2    87  TYR87      -0.2718
     14  CB        65.9400   78.0470   17.0620 C.3    87  TYR87       0.0548
     15  CG        64.6960   77.3010   17.5060 C.ar   87  TYR87      -0.0200
     16  CD1       64.6420   76.6560   18.7480 C.ar   87  TYR87      -0.0009
     17  CD2       63.5650   77.2550   16.6940 C.ar   87  TYR87      -0.0009
     18  CE1       63.4900   75.9770   19.1620 C.ar   87  TYR87       0.0417
     19  CE2       62.4130   76.5780   17.0950 C.ar   87  TYR87       0.0417
     20  CZ        62.3800   75.9480   18.3280 C.ar   87  TYR87       0.1957
     21  OH        61.2370   75.2840   18.7100 O.3    87  TYR87      -0.2866
     22  N         66.7810   76.3950   14.5260 N.am   88  ASP88      -0.1974
     23  CA        66.3720   75.4230   13.5190 C.3    88  ASP88       0.1709
     24  C         67.5430   74.6330   12.9390 C.2    88  ASP88       0.2293
     25  O         67.3480   73.7670   12.1000 O.2    88  ASP88      -0.2864
     26  CB        65.5030   76.0620   12.4200 C.3    88  ASP88       0.1436
     27  CG        66.3040   76.9300   11.4450 C.2    88  ASP88       0.3671
     28  OD1       65.6930   77.4500   10.4820 O.co2  88  ASP88      -0.2456
     29  OD2       67.5320   77.1440   11.5510 O.co2  88  ASP88      -0.2456
     30  N         70.6210   73.5260   15.2990 N.3    90  PRO90      -0.2116
     31  CA        71.3360   73.7260   16.5600 C.3    90  PRO90       0.1372
     32  C         72.8180   73.3780   16.4700 C.2    90  PRO90       0.2244
     33  O         73.2160   72.4460   15.7570 O.2    90  PRO90      -0.2868
     34  CB        70.5920   72.8160   17.5420 C.3    90  PRO90       0.0268
     35  CG        69.9340   71.8070   16.6910 C.3    90  PRO90       0.0207
     36  CD        69.6030   72.4660   15.3930 C.3    90  PRO90       0.0892
     37  N         68.1840   67.1370    2.6370 N.3   128  TRP128     -0.1227
     38  CA        68.2970   68.3460    3.4610 C.3   128  TRP128      0.1737
     39  C         68.5420   69.5880    2.6150 C.2   128  TRP128      0.2595
     40  O         69.6240   70.1620    2.5700 O.2   128  TRP128     -0.2718
     41  CB        69.2870   68.1160    4.6070 C.3   128  TRP128      0.0564
     42  CG        68.7470   66.9690    5.3760 C.ar  128  TRP128      0.0003
     43  CD1       69.1830   65.6720    5.3400 C.ar  128  TRP128      0.0946
     44  CD2       67.5550   66.9700    6.1650 C.ar  128  TRP128      0.0152
     45  NE1       68.3670   64.8790    6.1140 N.ar  128  TRP128     -0.2442
     46  CE2       67.3520   65.6480    6.6230 C.ar  128  TRP128      0.0810
     47  CE3       66.6430   67.9680    6.5610 C.ar  128  TRP128      0.0012
     48  CZ2       66.2980   65.3000    7.4610 C.ar  128  TRP128      0.0191
     49  CZ3       65.5780   67.6180    7.3870 C.ar  128  TRP128      0.0001
     50  CH2       65.4170   66.2920    7.8350 C.ar  128  TRP128      0.0015
     51  N         67.4580   70.0230    1.9900 N.am  129  HIS129     -0.1961
     52  CA        67.5020   70.9320    0.8400 C.3   129  HIS129      0.1787
     53  C         67.7290   72.4210    1.1080 C.2   129  HIS129      0.2620
     54  O         67.8810   73.1810    0.1570 O.2   129  HIS129     -0.2715
     55  CB        66.2250   70.7380    0.0020 C.3   129  HIS129      0.0785
     56  CG        64.9500   70.9710    0.7650 C.ar  129  HIS129      0.0821
     57  ND1       63.7180   71.0400    0.1470 N.ar  129  HIS129     -0.2267
     58  CD2       64.7150   71.1530    2.0880 C.ar  129  HIS129      0.1154
     59  CE1       62.7840   71.2580    1.0540 C.ar  129  HIS129      0.1986
     60  NE2       63.3580   71.3100    2.2420 N.ar  129  HIS129     -0.2212
     61  N         67.7640   72.8530    2.3740 N.am  130  HIS130     -0.1973
     62  CA        67.8770   74.2910    2.6650 C.3   130  HIS130      0.1656
     63  C         69.2920   74.8230    2.7910 C.2   130  HIS130      0.2291
     64  O         69.5040   76.0330    2.6730 O.2   130  HIS130     -0.2864
     65  CB        67.1300   74.6720    3.9480 C.3   130  HIS130      0.0771
     66  CG        65.6600   74.4180    3.8900 C.ar  130  HIS130      0.0820
     67  ND1       64.8440   74.9650    2.9220 N.ar  130  HIS130     -0.2267
     68  CD2       64.8550   73.6860    4.6950 C.ar  130  HIS130      0.1154
     69  CE1       63.6010   74.5620    3.1240 C.ar  130  HIS130      0.1986
     70  NE2       63.5830   73.7870    4.1930 N.ar  130  HIS130     -0.2212
     71  N         67.2570   75.5210    8.5030 N.3   138  GLY138     -0.1210
     72  CA        66.1180   74.6080    8.6020 C.3   138  GLY138      0.1956
     73  C         66.4340   73.1230    8.7070 C.2   138  GLY138      0.2612
     74  O         65.9430   72.3240    7.9100 O.2   138  GLY138     -0.2717
     75  N         67.2650   72.7740    9.6950 N.am  139  PHE139     -0.1962
     76  CA        67.7120   71.3960    9.9680 C.3   139  PHE139      0.1771
     77  C         68.7840   70.8880    9.0060 C.2   139  PHE139      0.2619
     78  O         69.2500   69.7580    9.1450 O.2   139  PHE139     -0.2715
     79  CB        66.5250   70.4070   10.0690 C.3   139  PHE139      0.0574
     80  CG        65.4620   70.8410   11.0470 C.ar  139  PHE139     -0.0200
     81  CD1       64.1490   71.0260   10.6250 C.ar  139  PHE139     -0.0042
     82  CD2       65.7780   71.0730   12.3860 C.ar  139  PHE139     -0.0042
     83  CE1       63.1560   71.4310   11.5210 C.ar  139  PHE139     -0.0003
     84  CE2       64.7900   71.4910   13.2910 C.ar  139  PHE139     -0.0003
     85  CZ        63.4870   71.6750   12.8510 C.ar  139  PHE139     -0.0000
     86  N         69.1800   71.7210    8.0470 N.am  140  CYS140     -0.1968
     87  CA        70.1590   71.3140    7.0450 C.3   140  CYS140      0.1712
     88  C         71.5170   71.9230    7.3220 C.2   140  CYS140      0.2296
     89  O         71.7070   73.1350    7.1640 O.2   140  CYS140     -0.2864
     90  CB        69.6760   71.7000    5.6370 C.3   140  CYS140      0.0983
     91  SG        67.9500   71.2920    5.2940 S.3   140  CYS140     -0.0798
     92  N         58.7670   68.1220   -0.7690 N.3   165  ASP165     -0.1239
     93  CA        58.7250   68.5580    0.6260 C.3   165  ASP165      0.1674
     94  C         57.7480   69.7270    0.7260 C.2   165  ASP165      0.2266
     95  O         57.5770   70.4990   -0.2320 O.2   165  ASP165     -0.2867
     96  CB        60.1240   69.0240    1.0190 C.3   165  ASP165      0.1410
     97  CG        60.2670   69.2650    2.4970 C.2   165  ASP165      0.3668
     98  OD1       60.8530   68.4160    3.2050 O.co2 165  ASP165     -0.2456
     99  OD2       59.7910   70.2800    3.0290 O.co2 165  ASP165     -0.2456
    100  N         58.2290   72.3890    2.1300 N.3   167  HIS167     -0.1241
    101  CA        58.9690   73.6410    2.0300 C.3   167  HIS167      0.1621
    102  C         59.6780   73.7820    0.6820 C.2   167  HIS167      0.2264
    103  O         59.9870   72.7850    0.0170 O.2   167  HIS167     -0.2867
    104  CB        59.9630   73.7600    3.1900 C.3   167  HIS167      0.0745
    105  CG        59.3040   73.7550    4.5410 C.ar  167  HIS167      0.0817
    106  ND1       59.1280   72.5980    5.2690 N.ar  167  HIS167     -0.2268
    107  CD2       58.7340   74.7450    5.2650 C.ar  167  HIS167      0.1154
    108  CE1       58.5180   72.8820    6.4070 C.ar  167  HIS167      0.1986
    109  NE2       58.2560   74.1790    6.4270 N.ar  167  HIS167     -0.2212
    110  N         55.6910   82.1170    5.9260 N.3   194  PHE194     -0.1227
    111  CA        55.9660   80.6920    5.9070 C.3   194  PHE194      0.1736
    112  C         57.3760   80.3630    5.3940 C.2   194  PHE194      0.2595
    113  O         57.7640   80.7910    4.3150 O.2   194  PHE194     -0.2718
    114  CB        54.9170   79.9340    5.1030 C.3   194  PHE194      0.0547
    115  CG        55.0430   78.4570    5.2340 C.ar  194  PHE194     -0.0202
    116  CD1       54.5310   77.8060    6.3560 C.ar  194  PHE194     -0.0042
    117  CD2       55.7100   77.7150    4.2670 C.ar  194  PHE194     -0.0042
    118  CE1       54.6640   76.4440    6.5070 C.ar  194  PHE194     -0.0003
    119  CE2       55.8560   76.3390    4.4090 C.ar  194  PHE194     -0.0003
    120  CZ        55.3200   75.7020    5.5360 C.ar  194  PHE194     -0.0000
    121  N         58.1200   79.5940    6.1890 N.am  195  PHE195     -0.1976
    122  CA        59.5170   79.2200    5.9010 C.3   195  PHE195      0.1639
    123  C         59.6990   78.5220    4.5490 C.2   195  PHE195      0.2290
    124  O         58.8790   77.6750    4.1780 O.2   195  PHE195     -0.2864
    125  CB        60.0280   78.2930    7.0220 C.3   195  PHE195      0.0560
    126  CG        61.4990   78.0230    6.9620 C.ar  195  PHE195     -0.0200
    127  CD1       61.9840   76.8650    6.3550 C.ar  195  PHE195     -0.0042
    128  CD2       62.4090   78.9230    7.5270 C.ar  195  PHE195     -0.0042
    129  CE1       63.3700   76.6110    6.2930 C.ar  195  PHE195     -0.0003
    130  CE2       63.7900   78.6730    7.4660 C.ar  195  PHE195     -0.0003
    131  CZ        64.2600   77.5260    6.8550 C.ar  195  PHE195     -0.0000
    132  N         56.4870   66.0410    5.3100 N.3   254  ASP254     -0.1239
    133  CA        55.8450   67.0720    6.1210 C.3   254  ASP254      0.1674
    134  C         54.6120   67.6790    5.4520 C.2   254  ASP254      0.2266
    135  O         54.0020   68.5880    5.9920 O.2   254  ASP254     -0.2867
    136  CB        56.8400   68.1480    6.6180 C.3   254  ASP254      0.1410
    137  CG        57.7110   68.7310    5.5070 C.2   254  ASP254      0.3668
    138  OD1       57.5850   68.3580    4.2940 O.co2 254  ASP254     -0.2456
    139  OD2       58.5940   69.5810    5.7860 O.co2 254  ASP254     -0.2456
    140  N         53.5740   70.5750   11.0430 N.3   261  MET261     -0.1245
    141  CA        53.5540   71.6930   10.0890 C.3   261  MET261      0.1570
    142  C         52.1210   72.1430    9.7720 C.2   261  MET261      0.2261
    143  O         51.8990   73.3060    9.4070 O.2   261  MET261     -0.2867
    144  CB        54.3030   71.3310    8.7970 C.3   261  MET261      0.0387
    145  CG        55.8140   71.1800    8.9440 C.3   261  MET261      0.0595
    146  SD        56.7010   72.6550    9.5620 S.3   261  MET261     -0.1393
    147  CE        56.9790   72.2000   11.2530 C.3   261  MET261      0.0692
    148  N         61.8670   66.7310    5.2950 N.3   291  GLY291     -0.1225
    149  CA        61.0310   67.0030    6.4550 C.3   291  GLY291      0.1811
    150  C         60.0820   65.8630    6.7680 C.2   291  GLY291      0.2280
    151  O         59.8770   64.9700    5.9450 O.2   291  GLY291     -0.2866
    152  N         57.6670   65.2930   10.5320 N.3   293  TYR293     -0.1241
    153  CA        57.8320   65.5410   11.9480 C.3   293  TYR293      0.1605
    154  C         56.8210   64.8520   12.8280 C.2   293  TYR293      0.2264
    155  O         56.9430   64.8790   14.0540 O.2   293  TYR293     -0.2867
    156  CB        57.8660   67.0560   12.1770 C.3   293  TYR293      0.0534
    157  CG        58.8780   67.6820   11.2550 C.ar  293  TYR293     -0.0201
    158  CD1       58.4820   68.5320   10.2070 C.ar  293  TYR293     -0.0009
    159  CD2       60.2290   67.3730   11.3820 C.ar  293  TYR293     -0.0009
    160  CE1       59.4330   69.0880    9.3410 C.ar  293  TYR293      0.0417
    161  CE2       61.1720   67.9050   10.5350 C.ar  293  TYR293      0.0417
    162  CZ        60.7750   68.7650    9.5170 C.ar  293  TYR293      0.1957
    163  OH        61.7370   69.2850    8.6850 O.3   293  TYR293     -0.2866
@<TRIPOS>BOND
     1    92    93    1
     2    95    94    2
     3    55    56    1
     4    55    52    1
     5   103   102    2
     6    57    56   ar
     7    57    59   ar
     8    54    53    2
     9    93    94    1
    10    93    96    1
    11   102   101    1
    12    56    58   ar
    13    52    53    1
    14    52    51    1
    15    96    97    1
    16    59    60   ar
    17    53    61   am
    18    51    39   am
    19   101   100    1
    20   101   104    1
    21    58    60   ar
    22    61    62    1
    23    97    99   ar
    24    97    98   ar
    25    40    39    2
    26    39    38    1
    27    37    38    1
    28    62    63    1
    29    62    65    1
    30    64    63    2
    31    67    69   ar
    32    67    66   ar
    33    69    70   ar
    34   104   105    1
    35    38    41    1
    36    66    65    1
    37    66    68   ar
    38   124   123    2
    39    70    68   ar
    40   117   119   ar
    41   117   115   ar
    42   138   137   ar
    43   113   112    2
    44   119   120   ar
    45   105   107   ar
    46   105   106   ar
    47   123   122    1
    48    41    42    1
    49   114   115    1
    50   114   111    1
    51   115   116   ar
    52   107   109   ar
    53   106   108   ar
    54    91    90    1
    55   148   149    1
    56   132   133    1
    57    43    42   ar
    58    43    45   ar
    59    42    44   ar
    60   112   111    1
    61   112   121   am
    62   134   135    2
    63   134   133    1
    64   137   139   ar
    65   137   136    1
    66   120   118   ar
    67    90    87    1
    68   122   121    1
    69   122   125    1
    70   111   110    1
    71   151   150    2
    72    45    46   ar
    73   133   136    1
    74    44    47   ar
    75    44    46   ar
    76   129   127   ar
    77   129   131   ar
    78   127   126   ar
    79   116   118   ar
    80   108   109   ar
    81   149   150    1
    82    47    49   ar
    83    46    48   ar
    84   131   130   ar
    85   126   125    1
    86   126   128   ar
    87    87    88    1
    88    87    86    1
    89    89    88    2
    90    49    50   ar
    91    48    50   ar
    92   130   128   ar
    93    74    73    2
    94    86    77   am
    95    71    72    1
    96    72    73    1
    97   163   162    1
    98    73    75   am
    99   144   145    1
   100   144   141    1
   101   145   146    1
   102    77    78    2
   103    77    76    1
   104   160   162   ar
   105   160   158   ar
   106   143   142    2
   107   162   161   ar
   108   146   147    1
   109    75    76    1
   110   142   141    1
   111    76    79    1
   112    79    80    1
   113   141   140    1
   114   158   157   ar
   115    28    27   ar
   116   152   153    1
   117   161   159   ar
   118    81    80   ar
   119    81    83   ar
   120    80    82   ar
   121   157   159   ar
   122   157   156    1
   123    27    29   ar
   124    27    26    1
   125    83    85   ar
   126   153   156    1
   127   153   154    1
   128    25    24    2
   129    82    84   ar
   130    26    23    1
   131   154   155    2
   132    85    84   ar
   133    24    23    1
   134    23    22    1
   135    22    12   am
   136    30    36    1
   137    30    31    1
   138    36    35    1
   139    33    32    2
   140    12    13    2
   141    12    11    1
   142    10    11    1
   143    32    31    1
   144    31    34    1
   145    35    34    1
   146    17    19   ar
   147    17    15   ar
   148    11    14    1
   149    14    15    1
   150    19    20   ar
   151    15    16   ar
   152    20    21    1
   153    20    18   ar
   154    16    18   ar
   155     4     3    2
   156     3     2    1
   157     9     8    1
   158     8     7    1
   159     2     1    1
   160     2     5    1
   161     5     6    1
   162     6     7    1
