@<TRIPOS>MOLECULE
tmp/1t64A01.pdb
 156 152 0 0 0
SMALL
GASTEIGER

@<TRIPOS>ATOM
      1  N         72.6120   59.1660   12.0730 N.3    15  CYS15      -0.1221
      2  CA        71.5020   60.0450   11.7300 C.3    15  CYS15       0.1808
      3  C         70.6540   60.3420   12.9520 C.2    15  CYS15       0.2601
      4  O         69.9640   61.3560   12.9910 O.2    15  CYS15      -0.2717
      5  CB        70.6290   59.4230   10.6340 C.3    15  CYS15       0.0970
      6  SG        71.4570   59.3630    9.0370 S.3    15  CYS15      -0.0800
      7  N         70.6970   59.4430   13.9350 N.am   16  ASP16      -0.1973
      8  CA        69.8980   59.5770   15.1530 C.3    16  ASP16       0.1709
      9  C         70.7100   60.0880   16.3500 C.2    16  ASP16       0.2293
     10  O         70.2630   59.9840   17.4910 O.2    16  ASP16      -0.2864
     11  CB        69.2740   58.2200   15.5180 C.3    16  ASP16       0.1436
     12  CG        68.0390   57.8920   14.6930 C.2    16  ASP16       0.3671
     13  OD1       67.5600   58.7700   13.9470 O.co2  16  ASP16      -0.2456
     14  OD2       67.4670   56.7810   14.7470 O.co2  16  ASP16      -0.2456
     15  N         72.1390   63.2110   17.1080 N.3    18  LEU18      -0.1245
     16  CA        72.2010   64.5980   17.5520 C.3    18  LEU18       0.1561
     17  C         71.2730   64.8210   18.7420 C.2    18  LEU18       0.2260
     18  O         70.1290   64.3610   18.7420 O.2    18  LEU18      -0.2867
     19  CB        71.8870   65.5580   16.4110 C.3    18  LEU18       0.0270
     20  CG        72.7320   65.4390   15.1350 C.3    18  LEU18       0.0019
     21  CD1       72.1290   66.3110   14.0440 C.3    18  LEU18       0.0001
     22  CD2       74.1990   65.8130   15.3830 C.3    18  LEU18       0.0001
     23  N         68.6260   66.2840   21.2410 N.3    20  LYS20      -0.1231
     24  CA        67.3570   67.0040   21.0510 C.3    20  LYS20       0.1693
     25  C         66.6570   66.8320   19.6830 C.2    20  LYS20       0.2592
     26  O         65.4290   66.9700   19.6040 O.2    20  LYS20      -0.2718
     27  CB        67.5060   68.4960   21.4200 C.3    20  LYS20       0.0285
     28  CG        66.1730   69.1250   21.8040 C.3    20  LYS20       0.0035
     29  CD        66.4090   70.5940   22.1440 C.3    20  LYS20       0.0206
     30  CE        66.3420   71.5580   20.9720 C.3    20  LYS20       0.1093
     31  NZ        67.4320   71.3740   19.9660 N.3    20  LYS20      -0.1314
     32  N         67.4060   66.5590   18.6110 N.am   21  ILE21      -0.1966
     33  CA        66.7830   66.1790   17.3380 C.3    21  ILE21       0.1712
     34  C         66.2090   64.7610   17.5010 C.2    21  ILE21       0.2458
     35  O         66.9400   63.8390   17.8710 O.2    21  ILE21      -0.2730
     36  CB        67.7790   66.2580   16.1600 C.3    21  ILE21       0.0289
     37  CG1       68.1150   67.7110   15.8340 C.3    21  ILE21       0.0022
     38  CG2       67.1850   65.6450   14.8900 C.3    21  ILE21       0.0023
     39  CD1       69.5120   68.1010   16.1870 C.3    21  ILE21       0.0001
     40  N         64.9070   64.5940   17.2560 N.am   22  PRO22      -0.2727
     41  CA        64.2320   63.2990   17.4600 C.3    22  PRO22       0.1402
     42  C         64.7990   62.1760   16.5870 C.2    22  PRO22       0.2269
     43  O         65.3120   62.4570   15.5000 O.2    22  PRO22      -0.2865
     44  CB        62.7810   63.5990   17.0740 C.3    22  PRO22       0.0296
     45  CG        62.6580   65.0870   17.2510 C.3    22  PRO22       0.0237
     46  CD        63.9750   65.6260   16.7670 C.3    22  PRO22       0.0939
     47  N         64.4790   59.6760   14.2290 N.3    24  ARG24      -0.1231
     48  CA        63.5940   59.2440   13.1580 C.3    24  ARG24       0.1694
     49  C         64.1440   58.1380   12.2520 C.2    24  ARG24       0.2591
     50  O         63.3680   57.3250   11.7290 O.2    24  ARG24      -0.2718
     51  CB        63.2590   60.4620   12.3010 C.3    24  ARG24       0.0321
     52  CG        62.0640   60.3030   11.3800 C.3    24  ARG24       0.0489
     53  CD        61.7800   61.5820   10.5980 C.3    24  ARG24       0.2205
     54  NE        62.8840   61.8480    9.6890 N.pl3  24  ARG24      -0.0865
     55  CZ        62.9570   62.8850    8.8690 C.cat  24  ARG24       0.5346
     56  NH1       61.9940   63.8020    8.8420 N.pl3  24  ARG24       0.1354
     57  NH2       64.0080   62.9970    8.0730 N.pl3  24  ARG24       0.1354
     58  N         65.4620   58.1310   12.0370 N.am   25  ALA25      -0.1980
     59  CA        66.0670   57.2130   11.0700 C.3    25  ALA25       0.1597
     60  C         65.8020   55.7600   11.4200 C.2    25  ALA25       0.2287
     61  O         65.4950   54.9480   10.5390 O.2    25  ALA25      -0.2864
     62  CB        67.5620   57.4630   10.9430 C.3    25  ALA25       0.0319
     63  N         77.5540   63.9020   11.5100 N.3    98  TYR98      -0.1241
     64  CA        76.1920   63.7170   11.0410 C.3    98  TYR98       0.1605
     65  C         76.1140   64.1610    9.5820 C.2    98  TYR98       0.2264
     66  O         75.6660   63.3970    8.7180 O.2    98  TYR98      -0.2867
     67  CB        75.2260   64.5220   11.9260 C.3    98  TYR98       0.0534
     68  CG        73.8420   64.6460   11.3650 C.ar   98  TYR98      -0.0201
     69  CD1       72.8710   63.6710   11.6210 C.ar   98  TYR98      -0.0009
     70  CD2       73.4960   65.7420   10.5800 C.ar   98  TYR98      -0.0009
     71  CE1       71.5840   63.7900   11.0980 C.ar   98  TYR98       0.0417
     72  CE2       72.2190   65.8810   10.0560 C.ar   98  TYR98       0.0417
     73  CZ        71.2710   64.9110   10.3100 C.ar   98  TYR98       0.1957
     74  OH        70.0200   65.0630    9.7630 O.3    98  TYR98      -0.2866
     75  N         67.2320   59.1700    4.7640 N.3   125  SER125     -0.1217
     76  CA        67.8030   60.0690    5.7710 C.3   125  SER125      0.1889
     77  C         68.4180   61.3370    5.1880 C.2   125  SER125      0.2288
     78  O         68.9300   62.1790    5.9410 O.2   125  SER125     -0.2866
     79  CB        68.8660   59.3300    6.5770 C.3   125  SER125      0.2089
     80  OG        68.2730   58.7740    7.7050 O.3   125  SER125     -0.2183
     81  N         68.1840   67.1370    2.6370 N.3   128  TRP128     -0.1241
     82  CA        68.2970   68.3460    3.4610 C.3   128  TRP128      0.1605
     83  C         68.5420   69.5880    2.6150 C.2   128  TRP128      0.2264
     84  O         69.6240   70.1620    2.5700 O.2   128  TRP128     -0.2867
     85  CB        69.2870   68.1160    4.6070 C.3   128  TRP128      0.0550
     86  CG        68.7470   66.9690    5.3760 C.ar  128  TRP128      0.0003
     87  CD1       69.1830   65.6720    5.3400 C.ar  128  TRP128      0.0946
     88  CD2       67.5550   66.9700    6.1650 C.ar  128  TRP128      0.0152
     89  NE1       68.3670   64.8790    6.1140 N.ar  128  TRP128     -0.2442
     90  CE2       67.3520   65.6480    6.6230 C.ar  128  TRP128      0.0810
     91  CE3       66.6430   67.9680    6.5610 C.ar  128  TRP128      0.0012
     92  CZ2       66.2980   65.3000    7.4610 C.ar  128  TRP128      0.0191
     93  CZ3       65.5780   67.6180    7.3870 C.ar  128  TRP128      0.0001
     94  CH2       65.4170   66.2920    7.8350 C.ar  128  TRP128      0.0015
     95  N         67.2650   72.7740    9.6950 N.3   139  PHE139     -0.1241
     96  CA        67.7120   71.3960    9.9680 C.3   139  PHE139      0.1605
     97  C         68.7840   70.8880    9.0060 C.2   139  PHE139      0.2264
     98  O         69.2500   69.7580    9.1450 O.2   139  PHE139     -0.2867
     99  CB        66.5250   70.4070   10.0690 C.3   139  PHE139      0.0534
    100  CG        65.4620   70.8410   11.0470 C.ar  139  PHE139     -0.0203
    101  CD1       64.1490   71.0260   10.6250 C.ar  139  PHE139     -0.0042
    102  CD2       65.7780   71.0730   12.3860 C.ar  139  PHE139     -0.0042
    103  CE1       63.1560   71.4310   11.5210 C.ar  139  PHE139     -0.0003
    104  CE2       64.7900   71.4910   13.2910 C.ar  139  PHE139     -0.0003
    105  CZ        63.4870   71.6750   12.8510 C.ar  139  PHE139     -0.0000
    106  N         72.4620   71.0910    7.7660 N.3   141  TYR141     -0.1241
    107  CA        73.8340   71.5450    7.9780 C.3   141  TYR141      0.1605
    108  C         74.6020   71.4250    6.6810 C.2   141  TYR141      0.2264
    109  O         75.5410   72.1610    6.4310 O.2   141  TYR141     -0.2867
    110  CB        74.5350   70.6970    9.0360 C.3   141  TYR141      0.0534
    111  CG        73.8690   70.7250   10.3880 C.ar  141  TYR141     -0.0201
    112  CD1       72.9500   69.7440   10.7410 C.ar  141  TYR141     -0.0009
    113  CD2       74.1660   71.7300   11.3190 C.ar  141  TYR141     -0.0009
    114  CE1       72.3280   69.7550   11.9810 C.ar  141  TYR141      0.0417
    115  CE2       73.5560   71.7440   12.5760 C.ar  141  TYR141      0.0417
    116  CZ        72.6330   70.7500   12.8920 C.ar  141  TYR141      0.1957
    117  OH        72.0010   70.7330   14.1210 O.3   141  TYR141     -0.2866
    118  N         53.0270   68.2180   12.3550 N.3   260  PRO260     -0.2102
    119  CA        52.9840   69.4690   13.1410 C.3   260  PRO260      0.1504
    120  C         53.0630   70.7140   12.2640 C.2   260  PRO260      0.2575
    121  O         52.6740   71.7950   12.7050 O.2   260  PRO260     -0.2718
    122  CB        54.2430   69.3980   14.0230 C.3   260  PRO260      0.0282
    123  CG        54.7430   67.9920   13.9540 C.3   260  PRO260      0.0208
    124  CD        54.1320   67.3410   12.7750 C.3   260  PRO260      0.0893
    125  N         53.5740   70.5750   11.0430 N.am  261  MET261     -0.1980
    126  CA        53.5540   71.6930   10.0890 C.3   261  MET261      0.1605
    127  C         52.1210   72.1430    9.7720 C.2   261  MET261      0.2287
    128  O         51.8990   73.3060    9.4070 O.2   261  MET261     -0.2864
    129  CB        54.3030   71.3310    8.7970 C.3   261  MET261      0.0413
    130  CG        55.8140   71.1800    8.9440 C.3   261  MET261      0.0598
    131  SD        56.7010   72.6550    9.5620 S.3   261  MET261     -0.1393
    132  CE        56.9790   72.2000   11.2530 C.3   261  MET261      0.0692
    133  N         59.5170   65.8730    7.9620 N.3   292  GLY292     -0.1210
    134  CA        58.5400   64.8620    8.3390 C.3   292  GLY292      0.1956
    135  C         58.6300   64.7060    9.8290 C.2   292  GLY292      0.2611
    136  O         59.5610   64.0720   10.3380 O.2   292  GLY292     -0.2717
    137  N         57.6670   65.2930   10.5320 N.am  293  TYR293     -0.1976
    138  CA        57.8320   65.5410   11.9480 C.3   293  TYR293      0.1639
    139  C         56.8210   64.8520   12.8280 C.2   293  TYR293      0.2290
    140  O         56.9430   64.8790   14.0540 O.2   293  TYR293     -0.2864
    141  CB        57.8660   67.0560   12.1770 C.3   293  TYR293      0.0560
    142  CG        58.8780   67.6820   11.2550 C.ar  293  TYR293     -0.0198
    143  CD1       58.4820   68.5320   10.2070 C.ar  293  TYR293     -0.0009
    144  CD2       60.2290   67.3730   11.3820 C.ar  293  TYR293     -0.0009
    145  CE1       59.4330   69.0880    9.3410 C.ar  293  TYR293      0.0417
    146  CE2       61.1720   67.9050   10.5350 C.ar  293  TYR293      0.0417
    147  CZ        60.7750   68.7650    9.5170 C.ar  293  TYR293      0.1957
    148  OH        61.7370   69.2850    8.6850 O.3   293  TYR293     -0.2866
    149  N         56.6170   61.4310   13.5110 N.3   295  LEU295     -0.1245
    150  CA        57.6580   60.4380   13.1890 C.3   295  LEU295      0.1561
    151  C         57.0700   59.1350   12.6480 C.2   295  LEU295      0.2260
    152  O         57.5140   58.6200   11.6220 O.2   295  LEU295     -0.2867
    153  CB        58.5530   60.1670   14.4090 C.3   295  LEU295      0.0270
    154  CG        59.2570   61.3830   15.0250 C.3   295  LEU295      0.0019
    155  CD1       60.1670   60.9760   16.1850 C.3   295  LEU295      0.0001
    156  CD2       60.0110   62.1510   13.9780 C.3   295  LEU295      0.0001
@<TRIPOS>BOND
     1    84    83    2
     2    83    82    1
     3    81    82    1
     4    82    85    1
     5    85    86    1
     6    75    76    1
     7    77    76    1
     8    77    78    2
     9    87    86   ar
    10    87    89   ar
    11    86    88   ar
    12    76    79    1
    13    89    90   ar
    14    88    91   ar
    15    88    90   ar
    16   109   108    2
    17    91    93   ar
    18    79    80    1
    19    90    92   ar
    20   108   107    1
    21    93    94   ar
    22    92    94   ar
    23   106   107    1
    24   133   134    1
    25   107   110    1
    26    57    55    1
    27   134   135    1
    28   148   147    1
    29    66    65    2
    30   129   130    1
    31   129   126    1
    32    56    55    1
    33    55    54    2
    34   130   131    1
    35    97    98    2
    36    97    96    1
    37   110   111    1
    38     6     5    1
    39   145   147   ar
    40   145   143   ar
    41   128   127    2
    42   147   146   ar
    43   131   132    1
    44    65    64    1
    45    54    53    1
    46    95    96    1
    47    74    73    1
    48   127   126    1
    49   135   136    2
    50   135   137   am
    51    96    99    1
    52    72    73   ar
    53    72    70   ar
    54    99   100    1
    55   126   125    1
    56   143   142   ar
    57    73    71   ar
    58   111   112   ar
    59   111   113   ar
    60   137   138    1
    61   146   144   ar
    62    61    60    2
    63    70    68   ar
    64    53    52    1
    65   101   100   ar
    66   101   103   ar
    67     5     2    1
    68   112   114   ar
    69    62    59    1
    70    64    63    1
    71    64    67    1
    72   125   120   am
    73   100   102   ar
    74    59    60    1
    75    59    58    1
    76    71    69   ar
    77   142   144   ar
    78   142   141    1
    79   113   115   ar
    80    68    69   ar
    81    68    67    1
    82    52    51    1
    83   103   105   ar
    84   152   151    2
    85    50    49    2
    86     2     1    1
    87     2     3    1
    88   138   141    1
    89   138   139    1
    90   114   116   ar
    91    58    49   am
    92    49    48    1
    93   120   121    2
    94   120   119    1
    95    51    48    1
    96   118   124    1
    97   118   119    1
    98   102   104   ar
    99   115   116   ar
   100   151   150    1
   101   124   123    1
   102   139   140    2
   103   105   104   ar
   104   116   117    1
   105     3     4    2
   106     3     7   am
   107   119   122    1
   108    48    47    1
   109   150   149    1
   110   150   153    1
   111     7     8    1
   112    13    12   ar
   113   123   122    1
   114   156   154    1
   115    21    20    1
   116   153   154    1
   117    12    14   ar
   118    12    11    1
   119    38    36    1
   120   154   155    1
   121    20    22    1
   122    20    19    1
   123     8    11    1
   124     8     9    1
   125    43    42    2
   126    37    36    1
   127    37    39    1
   128    36    33    1
   129     9    10    2
   130    19    16    1
   131    42    41    1
   132    46    45    1
   133    46    40    1
   134    44    45    1
   135    44    41    1
   136    15    16    1
   137    40    41    1
   138    40    34   am
   139    33    34    1
   140    33    32    1
   141    34    35    2
   142    16    17    1
   143    32    25   am
   144    17    18    2
   145    26    25    2
   146    25    24    1
   147    31    30    1
   148    30    29    1
   149    24    23    1
   150    24    27    1
   151    27    28    1
   152    28    29    1
