@<TRIPOS>MOLECULE
tmp/1t65A00.pdb
 124 115 0 0 0
SMALL
GASTEIGER

@<TRIPOS>ATOM
      1  N         31.3830    9.8270    9.6010 N.3    44  LEU44      -0.1231
      2  CA        31.5960    9.5370   11.0170 C.3    44  LEU44       0.1693
      3  C         32.1070   10.7830   11.7430 C.2    44  LEU44       0.2591
      4  O         31.7530   11.0280   12.8900 O.2    44  LEU44      -0.2718
      5  CB        32.5990    8.3880   11.1920 C.3    44  LEU44       0.0284
      6  CG        32.6250    7.7680   12.5920 C.3    44  LEU44       0.0019
      7  CD1       31.2790    7.0990   12.8600 C.3    44  LEU44       0.0001
      8  CD2       33.7470    6.7440   12.7070 C.3    44  LEU44       0.0001
      9  N         32.9490   11.5640   11.0720 N.am   45  VAL45      -0.1980
     10  CA        33.4840   12.7860   11.6660 C.3    45  VAL45       0.1595
     11  C         32.3620   13.7940   11.9350 C.2    45  VAL45       0.2287
     12  O         32.3180   14.4100   13.0010 O.2    45  VAL45      -0.2864
     13  CB        34.5460   13.4310   10.7460 C.3    45  VAL45       0.0276
     14  CG1       34.9970   14.7770   11.3180 C.3    45  VAL45       0.0022
     15  CG2       35.7340   12.4980   10.6130 C.3    45  VAL45       0.0022
     16  N         30.0230   12.6370   14.8540 N.3    48  VAL48      -0.1231
     17  CA        30.5740   12.8640   16.1900 C.3    48  VAL48       0.1692
     18  C         30.4030   14.3260   16.6150 C.2    48  VAL48       0.2591
     19  O         30.0180   14.6020   17.7510 O.2    48  VAL48      -0.2718
     20  CB        32.0780   12.4950   16.2650 C.3    48  VAL48       0.0266
     21  CG1       32.6410   12.8850   17.6300 C.3    48  VAL48       0.0020
     22  CG2       32.2660   11.0010   16.0340 C.3    48  VAL48       0.0020
     23  N         30.6850   15.2580   15.7060 N.am   49  LYS49      -0.1980
     24  CA        30.5520   16.6850   16.0110 C.3    49  LYS49       0.1596
     25  C         29.0900   17.0470   16.2730 C.2    49  LYS49       0.2287
     26  O         28.7850   17.8780   17.1330 O.2    49  LYS49      -0.2864
     27  CB        31.0880   17.5310   14.8550 C.3    49  LYS49       0.0298
     28  CG        32.5630   17.3080   14.5630 C.3    49  LYS49       0.0038
     29  CD        33.0460   18.2090   13.4360 C.3    49  LYS49       0.0206
     30  CE        34.5030   17.9330   13.1090 C.3    49  LYS49       0.1093
     31  NZ        35.3700   18.0650   14.3120 N.3    49  LYS49      -0.1314
     32  N         27.8910   15.4850   19.7470 N.3    52  LYS52      -0.1245
     33  CA        28.4300   16.2520   20.8690 C.3    52  LYS52       0.1561
     34  C         27.7030   17.5740   21.1060 C.2    52  LYS52       0.2260
     35  O         27.8100   18.1580   22.1850 O.2    52  LYS52      -0.2867
     36  CB        29.9240   16.5340   20.6660 C.3    52  LYS52       0.0271
     37  CG        30.8130   15.3060   20.7770 C.3    52  LYS52       0.0035
     38  CD        32.2850   15.6870   20.8710 C.3    52  LYS52       0.0206
     39  CE        32.7600   16.4490   19.6460 C.3    52  LYS52       0.1093
     40  NZ        34.1920   16.8610   19.7740 N.3    52  LYS52      -0.1314
     41  N         31.3510    9.6110   29.8740 N.3    62  VAL62      -0.1245
     42  CA        32.2690    9.6370   28.7330 C.3    62  VAL62       0.1561
     43  C         32.3400    8.3410   27.9240 C.2    62  VAL62       0.2260
     44  O         32.3640    8.3720   26.6900 O.2    62  VAL62      -0.2867
     45  CB        33.7050   10.0010   29.1820 C.3    62  VAL62       0.0252
     46  CG1       34.2000    8.9980   30.2100 C.3    62  VAL62       0.0019
     47  CG2       34.6330   10.0260   27.9830 C.3    62  VAL62       0.0019
     48  N         29.1830    7.8860   25.8260 N.3    65  GLN65      -0.1231
     49  CA        29.0840    8.8110   24.7010 C.3    65  GLN65       0.1698
     50  C         29.7090    8.1370   23.4860 C.2    65  GLN65       0.2592
     51  O         29.1610    8.1700   22.3850 O.2    65  GLN65      -0.2718
     52  CB        29.8350   10.1120   24.9980 C.3    65  GLN65       0.0381
     53  CG        29.1000   11.1020   25.8980 C.3    65  GLN65       0.0905
     54  CD        29.9310   12.3450   26.1870 C.2    65  GLN65       0.2608
     55  OE1       30.5730   12.8960   25.2910 O.2    65  GLN65      -0.2717
     56  NE2       29.9150   12.7970   27.4360 N.am   65  GLN65      -0.0878
     57  N         30.8690    7.5240   23.6970 N.am   66  MET66      -0.1979
     58  CA        31.5730    6.8390   22.6220 C.3    66  MET66       0.1605
     59  C         30.8060    5.5990   22.1640 C.2    66  MET66       0.2287
     60  O         30.6830    5.3440   20.9690 O.2    66  MET66      -0.2864
     61  CB        32.9760    6.4320   23.0880 C.3    66  MET66       0.0413
     62  CG        33.7970    5.7130   22.0250 C.3    66  MET66       0.0598
     63  SD        35.4240    5.1810   22.6120 S.3    66  MET66      -0.1393
     64  CE        35.0350    3.5540   23.2580 C.3    66  MET66       0.0692
     65  N         27.5870    6.0810   19.9150 N.3    69  ILE69      -0.1231
     66  CA        27.9610    6.4840   18.5630 C.3    69  ILE69       0.1692
     67  C         28.4650    5.2580   17.7890 C.2    69  ILE69       0.2591
     68  O         28.0760    5.0260   16.6430 O.2    69  ILE69      -0.2718
     69  CB        29.0720    7.5700   18.5890 C.3    69  ILE69       0.0266
     70  CG1       28.5220    8.8600   19.2090 C.3    69  ILE69       0.0019
     71  CG2       29.5900    7.8260   17.1790 C.3    69  ILE69       0.0020
     72  CD1       29.5590    9.9770   19.3640 C.3    69  ILE69       0.0001
     73  N         29.3240    4.4670   18.4290 N.am   70  GLN70      -0.1979
     74  CA        29.8780    3.2720   17.7990 C.3    70  GLN70       0.1601
     75  C         28.8320    2.2050   17.4510 C.2    70  GLN70       0.2287
     76  O         29.0250    1.4250   16.5210 O.2    70  GLN70      -0.2864
     77  CB        30.9530    2.6590   18.7000 C.3    70  GLN70       0.0394
     78  CG        32.2510    3.4540   18.7450 C.3    70  GLN70       0.0908
     79  CD        33.2200    2.9340   19.7930 C.2    70  GLN70       0.2608
     80  OE1       34.4340    3.0820   19.6580 O.2    70  GLN70      -0.2717
     81  NE2       32.6850    2.3380   20.8530 N.am   70  GLN70      -0.0878
     82  N         40.9160    3.6760    8.5910 N.3   225  GLU225     -0.1231
     83  CA        41.2250    3.3640    9.9870 C.3   225  GLU225      0.1699
     84  C         40.0600    3.2390   10.9720 C.2   225  GLU225      0.2592
     85  O         39.9100    2.1940   11.6120 O.2   225  GLU225     -0.2718
     86  CB        42.2430    4.3750   10.5280 C.3   225  GLU225      0.0402
     87  CG        42.8040    4.0110   11.8890 C.3   225  GLU225      0.1161
     88  CD        43.8950    4.9600   12.3530 C.2   225  GLU225      0.3649
     89  OE1       44.4060    4.7660   13.4750 O.co2 225  GLU225     -0.2457
     90  OE2       44.2430    5.8960   11.6000 O.co2 225  GLU225     -0.2457
     91  N         39.2460    4.2840   11.1130 N.am  226  MET226     -0.1979
     92  CA        38.1230    4.2350   12.0520 C.3   226  MET226      0.1605
     93  C         37.0920    3.1680   11.6940 C.2   226  MET226      0.2287
     94  O         36.5950    2.4570   12.5670 O.2   226  MET226     -0.2864
     95  CB        37.4190    5.5920   12.1460 C.3   226  MET226      0.0413
     96  CG        38.2410    6.6940   12.7910 C.3   226  MET226      0.0598
     97  SD        37.2120    8.1130   13.2250 S.3   226  MET226     -0.1393
     98  CE        36.6690    8.6440   11.5970 C.3   226  MET226      0.0692
     99  N         38.3290   -0.3320   12.5960 N.3   229  GLU229     -0.1231
    100  CA        38.3240   -0.5380   14.0380 C.3   229  GLU229      0.1699
    101  C         36.9240   -0.8290   14.5700 C.2   229  GLU229      0.2592
    102  O         36.7240   -1.7800   15.3190 O.2   229  GLU229     -0.2718
    103  CB        38.8940    0.6960   14.7410 C.3   229  GLU229      0.0402
    104  CG        38.9610    0.5710   16.2510 C.3   229  GLU229      0.1161
    105  CD        39.5010    1.8220   16.9090 C.2   229  GLU229      0.3649
    106  OE1       40.6180    2.2480   16.5480 O.co2 229  GLU229     -0.2457
    107  OE2       38.8090    2.3800   17.7870 O.co2 229  GLU229     -0.2457
    108  N         35.9600   -0.0030   14.1830 N.am  230  ILE230     -0.1980
    109  CA        34.5800   -0.1680   14.6270 C.3   230  ILE230      0.1595
    110  C         33.9330   -1.4660   14.1400 C.2   230  ILE230      0.2287
    111  O         33.2060   -2.1300   14.8880 O.2   230  ILE230     -0.2864
    112  CB        33.7160    1.0330   14.1690 C.3   230  ILE230      0.0276
    113  CG1       34.0470    2.2610   15.0200 C.3   230  ILE230      0.0022
    114  CG2       32.2380    0.6890   14.2600 C.3   230  ILE230      0.0022
    115  CD1       33.2810    3.5060   14.6130 C.3   230  ILE230      0.0001
    116  N         33.3800   -3.3510   17.5130 N.3   234  GLN234     -0.1245
    117  CA        32.0170   -3.0860   17.9680 C.3   234  GLN234      0.1566
    118  C         30.9250   -3.8540   17.2190 C.2   234  GLN234      0.2260
    119  O         30.0260   -4.4220   17.8400 O.2   234  GLN234     -0.2867
    120  CB        31.7260   -1.5820   17.8830 C.3   234  GLN234      0.0367
    121  CG        32.7980   -0.6850   18.4940 C.3   234  GLN234      0.0905
    122  CD        33.1100   -1.0280   19.9330 C.2   234  GLN234      0.2608
    123  OE1       32.2360   -1.4600   20.6840 O.2   234  GLN234     -0.2717
    124  NE2       34.3630   -0.8220   20.3320 N.am  234  GLN234     -0.0878
@<TRIPOS>BOND
     1    82    83    1
     2     1     2    1
     3    83    86    1
     4    83    84    1
     5    86    87    1
     6    15    13    1
     7    13    14    1
     8    13    10    1
     9    84    91   am
    10    84    85    2
    11     2     5    1
    12     2     3    1
    13     9    10    1
    14     9     3   am
    15    91    92    1
    16     5     6    1
    17    98    97    1
    18    90    88   ar
    19    10    11    1
    20    93    92    1
    21    93    94    2
    22     3     4    2
    23    87    88    1
    24    11    12    2
    25    92    95    1
    26    95    96    1
    27    88    89   ar
    28     6     8    1
    29     6     7    1
    30    99   100    1
    31    96    97    1
    32    30    29    1
    33    30    31    1
    34    29    28    1
    35   100   101    1
    36   100   103    1
    37   110   109    1
    38   110   111    2
    39   112   114    1
    40   112   109    1
    41   112   113    1
    42   108   101   am
    43   108   109    1
    44    28    27    1
    45   101   102    2
    46   115   113    1
    47   103   104    1
    48    16    17    1
    49    27    24    1
    50    23    24    1
    51    23    18   am
    52    24    25    1
    53    22    20    1
    54    17    20    1
    55    17    18    1
    56   104   105    1
    57    20    21    1
    58    25    26    2
    59    76    75    2
    60   106   105   ar
    61    18    19    2
    62    68    67    2
    63   105   107   ar
    64    71    69    1
    65   118   119    2
    66   118   117    1
    67    75    74    1
    68   116   117    1
    69    67    73   am
    70    67    66    1
    71    74    73    1
    72    74    77    1
    73   120   117    1
    74   120   121    1
    75   121   122    1
    76    66    69    1
    77    66    65    1
    78    69    70    1
    79    77    78    1
    80    78    79    1
    81    70    72    1
    82    39    40    1
    83    39    38    1
    84    80    79    2
    85    32    33    1
    86    79    81   am
    87   122   124   am
    88   122   123    2
    89    36    37    1
    90    36    33    1
    91    37    38    1
    92    33    34    1
    93    60    59    2
    94    34    35    2
    95    62    63    1
    96    62    61    1
    97    59    58    1
    98    51    50    2
    99    63    64    1
   100    58    61    1
   101    58    57    1
   102    50    57   am
   103    50    49    1
   104    49    52    1
   105    49    48    1
   106    52    53    1
   107    55    54    2
   108    53    54    1
   109    54    56   am
   110    44    43    2
   111    43    42    1
   112    47    45    1
   113    42    45    1
   114    42    41    1
   115    45    46    1
