@<TRIPOS>MOLECULE
tmp/1t6bA00.pdb
 121 108 0 0 0
SMALL
GASTEIGER

@<TRIPOS>ATOM
      1  N         35.0340   22.2480   26.8870 N.3   251  SER251     -0.1217
      2  CA        35.2310   21.8260   28.2610 C.3   251  SER251      0.1889
      3  C         36.6000   22.1990   28.6730 C.2   251  SER251      0.2288
      4  O         37.5450   22.0460   27.9120 O.2   251  SER251     -0.2866
      5  CB        35.1120   20.3350   28.4100 C.3   251  SER251      0.2089
      6  OG        34.0390   19.9210   27.6190 O.3   251  SER251     -0.2183
      7  N         39.7260   22.1620   31.7460 N.3   253  SER253     -0.1217
      8  CA        40.3100   21.5120   32.9020 C.3   253  SER253      0.1889
      9  C         41.5180   22.2660   33.4130 C.2   253  SER253      0.2288
     10  O         42.4650   22.5480   32.6470 O.2   253  SER253     -0.2866
     11  CB        40.7380   20.1170   32.5320 C.3   253  SER253      0.2089
     12  OG        39.5870   19.2880   32.4970 O.3   253  SER253     -0.2183
     13  N         43.3660   24.0110   30.3080 N.3   272  THR272     -0.1218
     14  CA        43.3080   23.6780   28.8780 C.3   272  THR272      0.1862
     15  C         41.8530   23.4880   28.4810 C.2   272  THR272      0.2287
     16  O         41.0800   22.8540   29.2250 O.2   272  THR272     -0.2866
     17  CB        44.1320   22.4270   28.5570 C.3   272  THR272      0.1770
     18  OG1       45.5140   22.7490   28.6770 O.3   272  THR272     -0.2211
     19  CG2       44.0250   22.0400   27.0520 C.3   272  THR272      0.0375
     20  N         39.1540   22.0860   25.6490 N.3   274  ALA274     -0.1231
     21  CA        38.7840   21.2710   24.4690 C.3   274  ALA274      0.1694
     22  C         37.6320   21.8990   23.6950 C.2   274  ALA274      0.2591
     23  O         36.5350   22.1380   24.2500 O.2   274  ALA274     -0.2718
     24  CB        38.3780   19.9080   24.8970 C.3   274  ALA274      0.0304
     25  N         37.8440   22.1710   22.4150 N.am  275  ILE275     -0.1980
     26  CA        36.7190   22.6770   21.6110 C.3   275  ILE275      0.1595
     27  C         35.9940   21.4720   21.0010 C.2   275  ILE275      0.2287
     28  O         36.6150   20.5420   20.4890 O.2   275  ILE275     -0.2864
     29  CB        37.1740   23.7500   20.5720 C.3   275  ILE275      0.0276
     30  CG1       37.8350   24.9270   21.2950 C.3   275  ILE275      0.0022
     31  CG2       35.9920   24.2710   19.7220 C.3   275  ILE275      0.0022
     32  CD1       38.7960   25.7320   20.4110 C.3   275  ILE275      0.0001
     33  N         34.3250   18.8950   18.7930 N.3   277  HIS277     -0.1241
     34  CA        34.6810   18.5200   17.4470 C.3   277  HIS277      0.1621
     35  C         33.4790   17.8620   16.7610 C.2   277  HIS277      0.2264
     36  O         33.5580   17.4640   15.6050 O.2   277  HIS277     -0.2867
     37  CB        35.8290   17.5230   17.4840 C.3   277  HIS277      0.0745
     38  CG        35.4680   16.2420   18.1540 C.ar  277  HIS277      0.0817
     39  ND1       35.3560   16.1310   19.5220 N.ar  277  HIS277     -0.2268
     40  CD2       35.1510   15.0250   17.6480 C.ar  277  HIS277      0.1154
     41  CE1       35.0010   14.8980   19.8310 C.ar  277  HIS277      0.1986
     42  NE2       34.8780   14.2050   18.7140 N.ar  277  HIS277     -0.2212
     43  N         41.9900   23.1750   20.5510 N.3   388  GLN388     -0.1245
     44  CA        42.4910   23.2790   21.9130 C.3   388  GLN388      0.1566
     45  C         42.9070   24.7020   22.2360 C.2   388  GLN388      0.2260
     46  O         43.4980   25.3740   21.4030 O.2   388  GLN388     -0.2867
     47  CB        43.6920   22.3810   21.9950 C.3   388  GLN388      0.0367
     48  CG        44.0640   22.0690   23.3260 C.3   388  GLN388      0.0905
     49  CD        44.2360   20.5770   23.5540 C.2   388  GLN388      0.2608
     50  OE1       45.2210   20.1760   24.1410 O.2   388  GLN388     -0.2717
     51  NE2       43.2600   19.7740   23.1350 N.am  388  GLN388     -0.0878
     52  N         47.3240   12.3890   30.4880 N.3   540  ASP540     -0.1239
     53  CA        48.3020   13.0930   29.6590 C.3   540  ASP540      0.1674
     54  C         49.2880   13.8540   30.5160 C.2   540  ASP540      0.2266
     55  O         49.2080   13.7690   31.7280 O.2   540  ASP540     -0.2867
     56  CB        47.6480   13.9550   28.6110 C.3   540  ASP540      0.1410
     57  CG        46.8660   15.0880   29.1730 C.2   540  ASP540      0.3668
     58  OD1       47.1340   15.5080   30.3280 O.co2 540  ASP540     -0.2456
     59  OD2       45.9880   15.6580   28.4820 O.co2 540  ASP540     -0.2456
     60  N         49.5820   17.0090   31.2080 N.3   542  ASN542     -0.1240
     61  CA        48.8800   17.9580   32.0770 C.3   542  ASN542      0.1653
     62  C         48.1280   17.3130   33.2490 C.2   542  ASN542      0.2266
     63  O         47.5520   18.0300   34.0660 O.2   542  ASN542     -0.2867
     64  CB        47.8510   18.7180   31.2470 C.3   542  ASN542      0.1155
     65  CG        48.4880   19.7650   30.3830 C.2   542  ASN542      0.2627
     66  OD1       48.0420   19.9940   29.2330 O.2   542  ASN542     -0.2716
     67  ND2       49.5560   20.3940   30.9010 N.am  542  ASN542     -0.0877
     68  N         45.3880   15.4920   32.9210 N.3   544  ILE544     -0.1245
     69  CA        44.0020   15.3390   32.6760 C.3   544  ILE544      0.1561
     70  C         43.8520   13.8570   32.3840 C.2   544  ILE544      0.2260
     71  O         44.7180   13.2840   31.7300 O.2   544  ILE544     -0.2867
     72  CB        43.5940   16.2000   31.4780 C.3   544  ILE544      0.0252
     73  CG1       43.6840   17.6640   31.8390 C.3   544  ILE544      0.0019
     74  CG2       42.1690   15.9020   31.0740 C.3   544  ILE544      0.0019
     75  CD1       43.8990   18.5040   30.6090 C.3   544  ILE544      0.0001
     76  N         42.5440   11.0090   30.3510 N.3   546  VAL546     -0.1245
     77  CA        42.2440   11.0590   28.9340 C.3   546  VAL546      0.1561
     78  C         41.8330    9.6700   28.4220 C.2   546  VAL546      0.2260
     79  O         41.5140    9.4990   27.2460 O.2   546  VAL546     -0.2867
     80  CB        43.4500   11.5560   28.1160 C.3   546  VAL546      0.0252
     81  CG1       43.7510   13.0220   28.4070 C.3   546  VAL546      0.0019
     82  CG2       44.6690   10.6790   28.4040 C.3   546  VAL546      0.0019
     83  N         34.8350   10.3490   24.6400 N.3   581  SER581     -0.1217
     84  CA        34.4460   11.4520   23.8020 C.3   581  SER581      0.1889
     85  C         33.2350   11.0900   22.8980 C.2   581  SER581      0.2288
     86  O         32.5570   11.9890   22.3660 O.2   581  SER581     -0.2866
     87  CB        35.6280   11.8970   22.9900 C.3   581  SER581      0.2089
     88  OG        35.9650   10.8630   22.0940 O.3   581  SER581     -0.2183
     89  N         38.9670    9.7710   25.0990 N.3   644  LYS644     -0.1231
     90  CA        39.6070   11.0480   24.7910 C.3   644  LYS644      0.1693
     91  C         40.9540   10.9450   24.0450 C.2   644  LYS644      0.2591
     92  O         41.1590   11.6460   23.0770 O.2   644  LYS644     -0.2718
     93  CB        39.7970   11.8670   26.0850 C.3   644  LYS644      0.0285
     94  CG        38.8880   13.0400   26.2550 C.3   644  LYS644      0.0035
     95  CD        39.2190   13.8370   27.5500 C.3   644  LYS644      0.0206
     96  CE        40.0060   15.1650   27.3040 C.3   644  LYS644      0.1093
     97  NZ        39.1570   16.3100   26.8230 N.3   644  LYS644     -0.1314
     98  N         41.8880   10.1250   24.5140 N.am  645  GLU645     -0.1979
     99  CA        43.1870   10.0860   23.8890 C.3   645  GLU645      0.1602
    100  C         43.0530    9.5250   22.4950 C.2   645  GLU645      0.2287
    101  O         43.9030    9.7490   21.6660 O.2   645  GLU645     -0.2864
    102  CB        44.2200    9.3210   24.7400 C.3   645  GLU645      0.0415
    103  CG        44.2870    7.8120   24.5790 C.3   645  GLU645      0.1163
    104  CD        44.7450    7.0530   25.8380 C.2   645  GLU645      0.3649
    105  OE1       45.7770    7.3780   26.4660 O.co2 645  GLU645     -0.2457
    106  OE2       44.0700    6.0760   26.2020 O.co2 645  GLU645     -0.2457
    107  N         40.3120    9.9810   20.3340 N.3   647  THR647     -0.1218
    108  CA        39.3480   10.7590   19.5340 C.3   647  THR647      0.1862
    109  C         39.9670   11.3300   18.2460 C.2   647  THR647      0.2287
    110  O         41.0070   11.9770   18.3040 O.2   647  THR647     -0.2866
    111  CB        38.9090   11.9360   20.4020 C.3   647  THR647      0.1770
    112  OG1       38.3660   11.4220   21.6270 O.3   647  THR647     -0.2211
    113  CG2       37.7920   12.7080   19.7790 C.3   647  THR647      0.0375
    114  N         39.8280   14.3050   15.6500 N.3   649  ILE649     -0.1245
    115  CA        39.1890   15.5950   15.8180 C.3   649  ILE649      0.1561
    116  C         39.0440   16.3730   14.5370 C.2   649  ILE649      0.2260
    117  O         38.5210   17.4680   14.5790 O.2   649  ILE649     -0.2867
    118  CB        39.8590   16.4390   16.9410 C.3   649  ILE649      0.0252
    119  CG1       41.3200   16.7100   16.6370 C.3   649  ILE649      0.0019
    120  CG2       39.7590   15.7310   18.2650 C.3   649  ILE649      0.0019
    121  CD1       41.8760   17.8520   17.4360 C.3   649  ILE649      0.0001
@<TRIPOS>BOND
     1   116   117    2
     2   116   115    1
     3    36    35    2
     4   114   115    1
     5   115   118    1
     6   119   118    1
     7   119   121    1
     8    35    34    1
     9   118   120    1
    10    34    37    1
    11    34    33    1
    12    37    38    1
    13    40    38   ar
    14    40    42   ar
    15    38    39   ar
    16   109   110    2
    17   109   108    1
    18    42    41   ar
    19    39    41   ar
    20   108   107    1
    21   108   111    1
    22    31    29    1
    23   113   111    1
    24   111   112    1
    25    32    30    1
    26    28    27    2
    27    43    44    1
    28    29    30    1
    29    29    26    1
    30    27    26    1
    31    46    45    2
    32    26    25    1
    33   101   100    2
    34    44    47    1
    35    44    45    1
    36    47    48    1
    37    88    87    1
    38    86    85    2
    39    25    22   am
    40   100    99    1
    41    85    84    1
    42    87    84    1
    43    92    91    2
    44    51    49   am
    45    48    49    1
    46    49    50    2
    47    22    23    2
    48    22    21    1
    49    84    83    1
    50    99    98    1
    51    99   102    1
    52    91    98   am
    53    91    90    1
    54    21    24    1
    55    21    20    1
    56   103   102    1
    57   103   104    1
    58    90    89    1
    59    90    93    1
    60   104   106   ar
    61   104   105   ar
    62    93    94    1
    63    94    95    1
    64    97    96    1
    65     1     2    1
    66    19    17    1
    67    79    78    2
    68    96    95    1
    69     6     5    1
    70     4     3    2
    71    80    82    1
    72    80    81    1
    73    80    77    1
    74     2     5    1
    75     2     3    1
    76    78    77    1
    77    15    14    1
    78    15    16    2
    79    59    57   ar
    80    17    18    1
    81    17    14    1
    82    56    57    1
    83    56    53    1
    84    14    13    1
    85    77    76    1
    86    57    58   ar
    87    66    65    2
    88    53    52    1
    89    53    54    1
    90    65    67   am
    91    65    64    1
    92    54    55    2
    93    75    73    1
    94    74    72    1
    95    60    61    1
    96    64    61    1
    97    72    73    1
    98    72    69    1
    99    71    70    2
   100     7     8    1
   101    61    62    1
   102    70    69    1
   103    12    11    1
   104    11     8    1
   105    10     9    2
   106    69    68    1
   107     8     9    1
   108    62    63    2
