@<TRIPOS>MOLECULE
tmp/1t6dA00.pdb
 96 92 0 0 0
SMALL
GASTEIGER

@<TRIPOS>ATOM
      1  N         25.4700   21.6090   37.0020 N.3    14  ARG14      -0.1245
      2  CA        24.9730   22.3830   35.8670 C.3    14  ARG14       0.1563
      3  C         25.6190   23.7540   35.6600 C.2    14  ARG14       0.2260
      4  O         25.8480   24.5050   36.6160 O.2    14  ARG14      -0.2867
      5  CB        23.4590   22.5530   35.9880 C.3    14  ARG14       0.0307
      6  CG        22.6830   21.2420   35.9120 C.3    14  ARG14       0.0489
      7  CD        21.1820   21.4770   35.9850 C.3    14  ARG14       0.2205
      8  NE        20.4380   20.2330   36.1830 N.pl3  14  ARG14      -0.0865
      9  CZ        20.3830   19.2330   35.3060 C.cat  14  ARG14       0.5346
     10  NH1       21.0270   19.3140   34.1470 N.pl3  14  ARG14       0.1354
     11  NH2       19.6930   18.1380   35.5960 N.pl3  14  ARG14       0.1354
     12  N         25.4790   27.4310   33.3700 N.3    16  THR16      -0.1218
     13  CA        24.6340   28.3110   32.5890 C.3    16  THR16       0.1862
     14  C         25.3950   29.6040   32.3220 C.2    16  THR16       0.2287
     15  O         25.9350   30.2230   33.2440 O.2    16  THR16      -0.2866
     16  CB        23.3310   28.6940   33.3230 C.3    16  THR16       0.1770
     17  OG1       22.7760   27.5500   33.9850 O.3    16  THR16      -0.2211
     18  CG2       22.3190   29.2420   32.3230 C.3    16  THR16       0.0375
     19  N         20.0180   33.4050   27.8960 N.3    27  ILE27      -0.1245
     20  CA        20.8570   32.2160   28.0470 C.3    27  ILE27       0.1561
     21  C         21.4980   31.8610   26.7050 C.2    27  ILE27       0.2260
     22  O         20.7950   31.6580   25.7180 O.2    27  ILE27      -0.2867
     23  CB        20.0200   31.0060   28.5060 C.3    27  ILE27       0.0252
     24  CG1       19.2050   31.3690   29.7490 C.3    27  ILE27       0.0019
     25  CG2       20.9320   29.8190   28.7800 C.3    27  ILE27       0.0019
     26  CD1       20.0290   31.5790   30.9930 C.3    27  ILE27       0.0001
     27  N         24.3450   26.1680   27.9310 N.3    30  GLU30      -0.1245
     28  CA        23.9880   25.3610   29.0870 C.3    30  GLU30       0.1567
     29  C         24.6220   23.9840   28.9910 C.2    30  GLU30       0.2260
     30  O         24.8370   23.4560   27.9010 O.2    30  GLU30      -0.2867
     31  CB        22.4750   25.2090   29.1950 C.3    30  GLU30       0.0388
     32  CG        21.7450   26.5230   29.2960 C.3    30  GLU30       0.1160
     33  CD        20.2720   26.3370   29.5400 C.2    30  GLU30       0.3649
     34  OE1       19.6040   25.7010   28.6970 O.co2  30  GLU30      -0.2457
     35  OE2       19.7850   26.8280   30.5790 O.co2  30  GLU30      -0.2457
     36  N         10.1240   19.0360   25.6540 N.3   216  TYR216     -0.1241
     37  CA        10.0250   20.2200   26.5050 C.3   216  TYR216      0.1605
     38  C         10.5630   21.4610   25.8090 C.2   216  TYR216      0.2264
     39  O         11.6600   21.4500   25.2500 O.2   216  TYR216     -0.2867
     40  CB        10.7910   20.0190   27.8120 C.3   216  TYR216      0.0534
     41  CG        10.5940   21.1450   28.8060 C.ar  216  TYR216     -0.0201
     42  CD1        9.4400   21.2170   29.5890 C.ar  216  TYR216     -0.0009
     43  CD2       11.5530   22.1460   28.9560 C.ar  216  TYR216     -0.0009
     44  CE1        9.2460   22.2570   30.5010 C.ar  216  TYR216      0.0417
     45  CE2       11.3660   23.1950   29.8690 C.ar  216  TYR216      0.0417
     46  CZ        10.2080   23.2400   30.6350 C.ar  216  TYR216      0.1957
     47  OH        10.0140   24.2680   31.5330 O.3   216  TYR216     -0.2866
     48  N         10.9340   25.4940   26.8370 N.3   218  PRO218     -0.2116
     49  CA        10.8100   26.5840   27.8120 C.3   218  PRO218      0.1372
     50  C          9.8370   27.6780   27.3660 C.2   218  PRO218      0.2244
     51  O          9.0760   28.2110   28.1720 O.2   218  PRO218     -0.2868
     52  CB        12.2330   27.1170   27.9160 C.3   218  PRO218      0.0268
     53  CG        13.0640   25.9110   27.6610 C.3   218  PRO218      0.0207
     54  CD        12.3480   25.2260   26.5240 C.3   218  PRO218      0.0892
     55  N          9.8310   28.8320   34.2620 N.3   283  ASP283     -0.1225
     56  CA        10.8760   27.9130   33.8210 C.3   283  ASP283      0.1805
     57  C         12.1980   28.3300   34.4750 C.2   283  ASP283      0.2597
     58  O         13.1370   27.5320   34.5740 O.2   283  ASP283     -0.2718
     59  CB        11.0250   27.9600   32.3010 C.3   283  ASP283      0.1424
     60  CG        12.2360   27.1830   31.8120 C.2   283  ASP283      0.3668
     61  OD1       13.1940   27.8120   31.3240 O.co2 283  ASP283     -0.2456
     62  OD2       12.2320   25.9420   31.9220 O.co2 283  ASP283     -0.2456
     63  N         12.2550   29.5810   34.9320 N.am  284  TRP284     -0.1976
     64  CA        13.4570   30.1240   35.5720 C.3   284  TRP284      0.1640
     65  C         13.4280   29.9620   37.0940 C.2   284  TRP284      0.2290
     66  O         12.3750   30.0710   37.7230 O.2   284  TRP284     -0.2864
     67  CB        13.6210   31.6090   35.2080 C.3   284  TRP284      0.0576
     68  CG        14.3440   31.8570   33.9110 C.ar  284  TRP284      0.0006
     69  CD1       14.4180   31.0170   32.8350 C.ar  284  TRP284      0.0946
     70  CD2       15.1230   33.0100   33.5730 C.ar  284  TRP284      0.0152
     71  NE1       15.2030   31.5740   31.8520 N.ar  284  TRP284     -0.2442
     72  CE2       15.6490   32.7950   32.2790 C.ar  284  TRP284      0.0810
     73  CE3       15.4340   34.2020   34.2410 C.ar  284  TRP284      0.0012
     74  CZ2       16.4690   33.7270   31.6390 C.ar  284  TRP284      0.0191
     75  CZ3       16.2530   35.1300   33.6040 C.ar  284  TRP284      0.0001
     76  CH2       16.7610   34.8830   32.3140 C.ar  284  TRP284      0.0015
     77  N         19.2960   28.6540   39.2860 N.3   287  ARG287     -0.1231
     78  CA        20.3960   28.8210   38.3440 C.3   287  ARG287      0.1694
     79  C         20.3670   30.1110   37.5360 C.2   287  ARG287      0.2591
     80  O         21.4160   30.6940   37.2660 O.2   287  ARG287     -0.2718
     81  CB        20.4620   27.6130   37.4020 C.3   287  ARG287      0.0321
     82  CG        20.8870   26.3320   38.1090 C.3   287  ARG287      0.0489
     83  CD        21.0700   25.1860   37.1320 C.3   287  ARG287      0.2205
     84  NE        19.7960   24.6650   36.6540 N.pl3 287  ARG287     -0.0865
     85  CZ        18.9740   23.9220   37.3880 C.cat 287  ARG287      0.5346
     86  NH1       19.2930   23.6110   38.6380 N.pl3 287  ARG287      0.1354
     87  NH2       17.8370   23.4840   36.8700 N.pl3 287  ARG287      0.1354
     88  N         19.1740   30.5480   37.1480 N.am  288  GLU288     -0.1979
     89  CA        19.0190   31.7710   36.3780 C.3   288  GLU288      0.1602
     90  C         19.0920   32.9830   37.3140 C.2   288  GLU288      0.2287
     91  O         19.5640   34.0500   36.9180 O.2   288  GLU288     -0.2864
     92  CB        17.6700   31.7830   35.6380 C.3   288  GLU288      0.0415
     93  CG        17.5170   30.7560   34.5050 C.3   288  GLU288      0.1163
     94  CD        17.3170   29.3210   34.9890 C.2   288  GLU288      0.3649
     95  OE1       16.7550   29.1150   36.0820 O.co2 288  GLU288     -0.2457
     96  OE2       17.7080   28.3910   34.2560 O.co2 288  GLU288     -0.2457
@<TRIPOS>BOND
     1    39    38    2
     2    36    37    1
     3    22    21    2
     4    38    37    1
     5    37    40    1
     6    54    48    1
     7    54    53    1
     8    21    20    1
     9    48    49    1
    10    50    49    1
    11    50    51    2
    12    53    52    1
    13    40    41    1
    14    49    52    1
    15    19    20    1
    16    30    29    2
    17    27    28    1
    18    20    23    1
    19    23    25    1
    20    23    24    1
    21    34    33   ar
    22    41    43   ar
    23    41    42   ar
    24    43    45   ar
    25    29    28    1
    26    28    31    1
    27    31    32    1
    28    32    33    1
    29    33    35   ar
    30    42    44   ar
    31    24    26    1
    32    45    46   ar
    33    44    46   ar
    34    46    47    1
    35    61    60   ar
    36    74    72   ar
    37    74    76   ar
    38    60    62   ar
    39    60    59    1
    40    71    72   ar
    41    71    69   ar
    42    72    70   ar
    43    59    56    1
    44    76    75   ar
    45    14    13    1
    46    14    15    2
    47    18    16    1
    48    13    16    1
    49    13    12    1
    50    69    68   ar
    51    16    17    1
    52    70    68   ar
    53    70    73   ar
    54    75    73   ar
    55    56    55    1
    56    56    57    1
    57    68    67    1
    58    10     9    1
    59    96    94   ar
    60    57    58    2
    61    57    63   am
    62    93    94    1
    63    93    92    1
    64    63    64    1
    65    94    95   ar
    66    67    64    1
    67     9    11    1
    68     9     8    2
    69    64    65    1
    70    92    89    1
    71     3     2    1
    72     3     4    2
    73     2     5    1
    74     2     1    1
    75     6     7    1
    76     6     5    1
    77     7     8    1
    78    89    88    1
    79    89    90    1
    80    84    83    1
    81    84    85    2
    82    87    85    1
    83    91    90    2
    84    65    66    2
    85    83    82    1
    86    88    79   am
    87    80    79    2
    88    85    86    1
    89    81    82    1
    90    81    78    1
    91    79    78    1
    92    78    77    1
