@<TRIPOS>MOLECULE
tmp/1t6nA00.pdb
 77 73 0 0 0
SMALL
GASTEIGER

@<TRIPOS>ATOM
      1  N         38.9690   42.1140   48.5000 N.3    46  LYS46      -0.1231
      2  CA        40.2360   42.6200   47.9930 C.3    46  LYS46       0.1693
      3  C         40.7510   41.8360   46.8000 C.2    46  LYS46       0.2593
      4  O         40.3010   40.7220   46.5380 O.2    46  LYS46      -0.2718
      5  CB        41.2830   42.6250   49.1070 C.3    46  LYS46       0.0285
      6  CG        40.9300   43.5680   50.2390 C.3    46  LYS46       0.0035
      7  CD        40.6340   44.9640   49.6960 C.3    46  LYS46       0.0206
      8  CE        40.0920   45.8880   50.7720 C.3    46  LYS46       0.1093
      9  NZ        39.7030   47.2140   50.2090 N.3    46  LYS46      -0.1314
     10  N         41.6950   42.4280   46.0760 N.am   47  SER47      -0.1938
     11  CA        42.2800   41.7930   44.9060 C.3    47  SER47       0.2055
     12  C         42.8340   40.4250   45.2860 C.2    47  SER47       0.2644
     13  O         43.4130   40.2680   46.3650 O.2    47  SER47      -0.2714
     14  CB        43.3980   42.6660   44.3360 C.3    47  SER47       0.2130
     15  OG        42.9660   44.0100   44.2180 O.3    47  SER47      -0.2179
     16  N         42.6480   39.4400   44.4100 N.am   48  GLY48      -0.1939
     17  CA        43.1420   38.1030   44.6830 C.3    48  GLY48       0.2014
     18  C         42.1230   37.1400   45.2750 C.2    48  GLY48       0.2639
     19  O         42.3260   35.9270   45.2360 O.2    48  GLY48      -0.2714
     20  N         41.0270   37.6640   45.8200 N.am   49  MET49      -0.1963
     21  CA        39.9940   36.8220   46.4190 C.3    49  MET49       0.1736
     22  C         39.1280   36.1020   45.3830 C.2    49  MET49       0.2617
     23  O         38.3010   35.2580   45.7280 O.2    49  MET49      -0.2715
     24  CB        39.1080   37.6540   47.3530 C.3    49  MET49       0.0427
     25  CG        39.7740   38.0410   48.6690 C.3    49  MET49       0.0599
     26  SD        40.2470   36.6040   49.6680 S.3    49  MET49      -0.1393
     27  CE        38.7420   36.2800   50.6010 C.3    49  MET49       0.0692
     28  N         39.3140   36.4410   44.1130 N.am   50  GLY50      -0.1940
     29  CA        38.5550   35.7850   43.0610 C.3    50  GLY50       0.2014
     30  C         37.0880   36.1560   42.9240 C.2    50  GLY50       0.2639
     31  O         36.2250   35.2810   42.8730 O.2    50  GLY50      -0.2714
     32  N         36.8010   37.4480   42.8510 N.am   51  LYS51      -0.1963
     33  CA        35.4290   37.9230   42.6990 C.3    51  LYS51       0.1728
     34  C         34.7890   37.5100   41.3550 C.2    51  LYS51       0.2617
     35  O         33.6020   37.0840   41.3330 O.2    51  LYS51      -0.2715
     36  CB        35.4030   39.4510   42.8610 C.3    51  LYS51       0.0311
     37  CG        35.8150   39.9700   44.2460 C.3    51  LYS51       0.0038
     38  CD        35.6720   41.4910   44.3380 C.3    51  LYS51       0.0206
     39  CE        36.6660   42.2130   43.4440 C.3    51  LYS51       0.1093
     40  NZ        38.0600   41.9870   43.9230 N.3    51  LYS51      -0.1314
     41  N         35.5610   37.6390   40.2660 N.am   52  THR52      -0.1937
     42  CA        35.1480   37.2970   38.9090 C.3    52  THR52       0.2028
     43  C         34.7260   35.8270   38.8730 C.2    52  THR52       0.2642
     44  O         33.6840   35.4750   38.3270 O.2    52  THR52      -0.2714
     45  CB        36.2920   37.4780   37.8770 C.3    52  THR52       0.1808
     46  OG1       36.6250   38.8710   37.7610 O.3    52  THR52      -0.2208
     47  CG2       35.8700   36.9790   36.4770 C.3    52  THR52       0.0379
     48  N         35.5530   34.9580   39.4450 N.am   53  ALA53      -0.1977
     49  CA        35.2310   33.5320   39.4320 C.3    53  ALA53       0.1597
     50  C         33.9030   33.2710   40.1160 C.2    53  ALA53       0.2287
     51  O         33.1560   32.3840   39.7120 O.2    53  ALA53      -0.2864
     52  CB        36.3340   32.7090   40.0990 C.3    53  ALA53       0.0319
     53  N         39.6230   44.7150   32.6730 N.3    81  LEU81      -0.1245
     54  CA        38.8380   43.7630   33.4560 C.3    81  LEU81       0.1561
     55  C         37.7310   43.1190   32.6260 C.2    81  LEU81       0.2260
     56  O         37.4330   41.9420   32.7980 O.2    81  LEU81      -0.2867
     57  CB        38.2270   44.4470   34.6810 C.3    81  LEU81       0.0270
     58  CG        37.3730   43.5480   35.5850 C.3    81  LEU81       0.0019
     59  CD1       38.2250   42.4510   36.1850 C.3    81  LEU81       0.0001
     60  CD2       36.7560   44.3820   36.6860 C.3    81  LEU81       0.0001
     61  N         37.7860   34.5440   31.4980 N.3    88  GLU88      -0.1245
     62  CA        37.3430   33.6280   32.5460 C.3    88  GLU88       0.1567
     63  C         36.1290   32.7910   32.1090 C.2    88  GLU88       0.2260
     64  O         36.0230   31.6070   32.4260 O.2    88  GLU88      -0.2867
     65  CB        36.9840   34.4220   33.8000 C.3    88  GLU88       0.0388
     66  CG        36.8600   33.5890   35.0510 C.3    88  GLU88       0.1160
     67  CD        38.2070   33.2810   35.6780 C.2    88  GLU88       0.3649
     68  OE1       39.0480   32.6300   35.0170 O.co2  88  GLU88      -0.2457
     69  OE2       38.4200   33.6980   36.8360 O.co2  88  GLU88      -0.2457
     70  N         30.7830   44.7580   38.1740 N.3   152  ASP152     -0.1239
     71  CA        32.0640   44.5350   38.8460 C.3   152  ASP152      0.1674
     72  C         32.6940   45.9330   38.8960 C.2   152  ASP152      0.2266
     73  O         32.4960   46.7300   37.9790 O.2   152  ASP152     -0.2867
     74  CB        32.9450   43.5640   38.0530 C.3   152  ASP152      0.1410
     75  CG        33.9960   42.9030   38.9250 C.2   152  ASP152      0.3668
     76  OD1       34.1290   43.3270   40.0920 O.co2 152  ASP152     -0.2456
     77  OD2       34.6810   41.9720   38.4550 O.co2 152  ASP152     -0.2456
@<TRIPOS>BOND
     1    61    62    1
     2    63    64    2
     3    63    62    1
     4    62    65    1
     5    55    56    2
     6    55    54    1
     7    53    54    1
     8    54    57    1
     9    65    66    1
    10    57    58    1
    11    68    67   ar
    12    66    67    1
    13    58    59    1
    14    58    60    1
    15    67    69   ar
    16    47    45    1
    17    46    45    1
    18    45    42    1
    19    73    72    2
    20    74    71    1
    21    74    75    1
    22    70    71    1
    23    44    43    2
    24    77    75   ar
    25    71    72    1
    26    43    42    1
    27    43    48   am
    28    42    41    1
    29    75    76   ar
    30    49    48    1
    31    49    52    1
    32    49    50    1
    33    51    50    2
    34    41    34   am
    35    35    34    2
    36    34    33    1
    37    33    32    1
    38    33    36    1
    39    32    30   am
    40    36    37    1
    41    31    30    2
    42    30    29    1
    43    29    28    1
    44    39    40    1
    45    39    38    1
    46    28    22   am
    47    15    14    1
    48    37    38    1
    49    14    11    1
    50    16    17    1
    51    16    12   am
    52    17    18    1
    53    11    12    1
    54    11    10    1
    55    19    18    2
    56    18    20   am
    57    12    13    2
    58    22    23    2
    59    22    21    1
    60    20    21    1
    61    10     3   am
    62    21    24    1
    63     4     3    2
    64     3     2    1
    65    24    25    1
    66     2     1    1
    67     2     5    1
    68    25    26    1
    69     5     6    1
    70    26    27    1
    71     7     6    1
    72     7     8    1
    73     9     8    1
