@<TRIPOS>MOLECULE
tmp/1t6xB00.pdb
 133 134 0 0 0
SMALL
GASTEIGER

@<TRIPOS>ATOM
      1  N         -3.0520  -14.6920   29.5590 N.3   165  VAL165     -0.1245
      2  CA        -4.3490  -14.2440   29.0660 C.3   165  VAL165      0.1561
      3  C         -5.3230  -15.4180   29.1770 C.2   165  VAL165      0.2260
      4  O         -5.1430  -16.4500   28.5280 O.2   165  VAL165     -0.2867
      5  CB        -4.2460  -13.7660   27.6060 C.3   165  VAL165      0.0252
      6  CG1       -5.6210  -13.3810   27.0700 C.3   165  VAL165      0.0019
      7  CG2       -3.3090  -12.5820   27.5320 C.3   165  VAL165      0.0019
      8  N        -15.0130   -3.0100   24.0060 N.3   167  PHE167     -0.1228
      9  CA       -15.0880   -4.2540   23.2470 C.3   167  PHE167      0.1721
     10  C        -14.2520   -5.3750   23.9120 C.2   167  PHE167      0.2437
     11  O        -14.2130   -5.4500   25.1430 O.2   167  PHE167     -0.2733
     12  CB       -14.6740   -3.9770   21.7960 C.3   167  PHE167      0.0547
     13  CG       -15.7950   -3.4530   20.9320 C.ar  167  PHE167     -0.0202
     14  CD1      -16.4090   -2.2350   21.2180 C.ar  167  PHE167     -0.0042
     15  CD2      -16.2400   -4.1810   19.8310 C.ar  167  PHE167     -0.0042
     16  CE1      -17.4530   -1.7470   20.4190 C.ar  167  PHE167     -0.0003
     17  CE2      -17.2830   -3.7030   19.0270 C.ar  167  PHE167     -0.0003
     18  CZ       -17.8890   -2.4830   19.3220 C.ar  167  PHE167     -0.0000
     19  N        -13.5910   -6.2650   23.1330 N.am  168  PRO168     -0.2718
     20  CA       -12.8130   -7.3170   23.8040 C.3   168  PRO168      0.1535
     21  C        -11.8550   -6.8840   24.9080 C.2   168  PRO168      0.2599
     22  O        -11.2030   -5.8540   24.8040 O.2   168  PRO168     -0.2715
     23  CB       -12.0770   -7.9800   22.6470 C.3   168  PRO168      0.0310
     24  CG       -13.0980   -7.9460   21.5810 C.3   168  PRO168      0.0237
     25  CD       -13.6200   -6.5210   21.6790 C.3   168  PRO168      0.0939
     26  N        -11.7850   -7.6810   25.9690 N.am  169  THR169     -0.1937
     27  CA       -10.8820   -7.4060   27.0840 C.3   169  THR169      0.2028
     28  C        -10.1140   -8.6750   27.4400 C.2   169  THR169      0.2642
     29  O        -10.7000   -9.7320   27.6720 O.2   169  THR169     -0.2714
     30  CB       -11.6300   -6.9200   28.3480 C.3   169  THR169      0.1808
     31  OG1      -12.7210   -7.8020   28.6290 O.3   169  THR169     -0.2208
     32  CG2      -12.1480   -5.5000   28.1600 C.3   169  THR169      0.0379
     33  N         -8.7940   -8.5710   27.4700 N.am  170  ALA170     -0.1963
     34  CA        -7.9630   -9.7190   27.8010 C.3   170  ALA170      0.1728
     35  C         -7.9850   -9.9510   29.3060 C.2   170  ALA170      0.2616
     36  O         -7.7470   -9.0140   30.0780 O.2   170  ALA170     -0.2715
     37  CB        -6.5390   -9.4730   27.3280 C.3   170  ALA170      0.0334
     38  N         -8.2980  -11.1820   29.7150 N.am  171  ASN171     -0.1972
     39  CA        -8.3300  -11.5490   31.1400 C.3   171  ASN171      0.1688
     40  C         -6.9620  -12.0300   31.6020 C.2   171  ASN171      0.2292
     41  O         -6.4120  -12.9860   31.0470 O.2   171  ASN171     -0.2864
     42  CB        -9.3370  -12.6630   31.3930 C.3   171  ASN171      0.1181
     43  CG       -10.7200  -12.1410   31.6300 C.2   171  ASN171      0.2629
     44  OD1      -10.9850  -11.4780   32.6400 O.2   171  ASN171     -0.2716
     45  ND2      -11.6240  -12.4310   30.6990 N.am  171  ASN171     -0.0877
     46  N         -9.0000   -7.1360   34.1620 N.3   212  GLU212     -0.1231
     47  CA        -9.4170   -7.1390   32.7610 C.3   212  GLU212      0.1699
     48  C         -8.7860   -5.9920   32.0080 C.2   212  GLU212      0.2592
     49  O         -8.8240   -4.8560   32.4770 O.2   212  GLU212     -0.2718
     50  CB       -10.9320   -6.9850   32.7080 C.3   212  GLU212      0.0402
     51  CG       -11.6090   -7.7690   31.6190 C.3   212  GLU212      0.1161
     52  CD       -12.9300   -8.3650   32.0810 C.2   212  GLU212      0.3649
     53  OE1      -13.4440   -9.2590   31.3730 O.co2 212  GLU212     -0.2457
     54  OE2      -13.4430   -7.9430   33.1490 O.co2 212  GLU212     -0.2457
     55  N         -8.2170   -6.2660   30.8410 N.am  213  VAL213     -0.1966
     56  CA        -7.6150   -5.1830   30.0740 C.3   213  VAL213      0.1727
     57  C         -8.0250   -5.0970   28.6170 C.2   213  VAL213      0.2616
     58  O         -7.9840   -6.0910   27.8920 O.2   213  VAL213     -0.2715
     59  CB        -6.0850   -5.2400   30.0760 C.3   213  VAL213      0.0290
     60  CG1       -5.6090   -6.5630   29.4810 C.3   213  VAL213      0.0023
     61  CG2       -5.5350   -4.0580   29.2530 C.3   213  VAL213      0.0023
     62  N         -8.4090   -3.8910   28.1990 N.am  214  TYR214     -0.1960
     63  CA        -8.7840   -3.6330   26.8210 C.3   214  TYR214      0.1771
     64  C         -7.5970   -2.8910   26.2440 C.2   214  TYR214      0.2619
     65  O         -7.2980   -1.7610   26.6410 O.2   214  TYR214     -0.2715
     66  CB       -10.0570   -2.7660   26.7450 C.3   214  TYR214      0.0574
     67  CG       -10.3750   -2.2410   25.3470 C.ar  214  TYR214     -0.0198
     68  CD1      -10.4710   -3.1090   24.2520 C.ar  214  TYR214     -0.0009
     69  CD2      -10.5240   -0.8730   25.1120 C.ar  214  TYR214     -0.0009
     70  CE1      -10.7000   -2.6260   22.9600 C.ar  214  TYR214      0.0417
     71  CE2      -10.7510   -0.3810   23.8300 C.ar  214  TYR214      0.0417
     72  CZ       -10.8330   -1.2580   22.7600 C.ar  214  TYR214      0.1957
     73  OH       -11.0090   -0.7650   21.4880 O.3   214  TYR214     -0.2866
     74  N         -6.9080   -3.5330   25.3170 N.am  215  ILE215     -0.1977
     75  CA        -5.7400   -2.9350   24.7130 C.3   215  ILE215      0.1596
     76  C         -6.1300   -2.0340   23.5430 C.2   215  ILE215      0.2287
     77  O         -6.8840   -2.4420   22.6580 O.2   215  ILE215     -0.2864
     78  CB        -4.7760   -4.0370   24.2760 C.3   215  ILE215      0.0276
     79  CG1       -4.6290   -5.0380   25.4320 C.3   215  ILE215      0.0022
     80  CG2       -3.4180   -3.4340   23.9080 C.3   215  ILE215      0.0022
     81  CD1       -3.9220   -6.3400   25.0940 C.3   215  ILE215      0.0001
     82  N         -5.3420   -2.2670   19.0460 N.3   218  PHE218     -0.1227
     83  CA        -4.8480   -3.6310   18.9510 C.3   218  PHE218      0.1736
     84  C         -5.9320   -4.6020   18.4880 C.2   218  PHE218      0.2595
     85  O         -7.1160   -4.4550   18.8250 O.2   218  PHE218     -0.2718
     86  CB        -4.3250   -4.0980   20.3120 C.3   218  PHE218      0.0547
     87  CG        -3.7770   -5.5030   20.2980 C.ar  218  PHE218     -0.0202
     88  CD1       -2.5060   -5.7630   19.8000 C.ar  218  PHE218     -0.0042
     89  CD2       -4.5590   -6.5720   20.7250 C.ar  218  PHE218     -0.0042
     90  CE1       -2.0180   -7.0650   19.7180 C.ar  218  PHE218     -0.0003
     91  CE2       -4.0840   -7.8730   20.6470 C.ar  218  PHE218     -0.0003
     92  CZ        -2.8050   -8.1200   20.1390 C.ar  218  PHE218     -0.0000
     93  N         -5.5160   -5.6010   17.7160 N.am  219  GLU219     -0.1965
     94  CA        -6.4170   -6.6400   17.2230 C.3   219  GLU219      0.1733
     95  C         -5.6010   -7.9240   17.2680 C.2   219  GLU219      0.2617
     96  O         -4.4710   -7.9400   16.7930 O.2   219  GLU219     -0.2715
     97  CB        -6.8450   -6.3610   15.7790 C.3   219  GLU219      0.0429
     98  CG        -5.6820   -6.2610   14.7930 C.3   219  GLU219      0.1163
     99  CD        -6.1110   -6.4290   13.3410 C.2   219  GLU219      0.3649
    100  OE1       -5.2450   -6.3090   12.4460 O.co2 219  GLU219     -0.2457
    101  OE2       -7.3100   -6.6880   13.0950 O.co2 219  GLU219     -0.2457
    102  N         -6.1450   -8.9870   17.8560 N.am  220  GLY220     -0.1940
    103  CA        -5.4090  -10.2400   17.9120 C.3   220  GLY220      0.2014
    104  C         -5.8440  -11.1350   19.0560 C.2   220  GLY220      0.2639
    105  O         -6.3700  -10.6480   20.0560 O.2   220  GLY220     -0.2714
    106  N         -5.6500  -12.4410   18.9120 N.am  221  ASP221     -0.1957
    107  CA        -6.0310  -13.3580   19.9790 C.3   221  ASP221      0.1840
    108  C         -4.7980  -13.5220   20.8590 C.2   221  ASP221      0.2622
    109  O         -3.6850  -13.6790   20.3590 O.2   221  ASP221     -0.2715
    110  CB        -6.4950  -14.7060   19.4040 C.3   221  ASP221      0.1450
    111  CG        -5.4550  -15.8020   19.5490 C.2   221  ASP221      0.3671
    112  OD1       -4.3300  -15.6280   19.0340 O.co2 221  ASP221     -0.2456
    113  OD2       -5.7710  -16.8410   20.1780 O.co2 221  ASP221     -0.2456
    114  N         -4.9960  -13.4750   22.1710 N.am  222  LEU222     -0.1963
    115  CA        -3.8790  -13.5750   23.1030 C.3   222  LEU222      0.1728
    116  C         -3.9700  -14.7070   24.1210 C.2   222  LEU222      0.2616
    117  O         -3.2470  -14.6910   25.1220 O.2   222  LEU222     -0.2715
    118  CB        -3.7250  -12.2490   23.8550 C.3   222  LEU222      0.0311
    119  CG        -3.4010  -11.0020   23.0310 C.3   222  LEU222      0.0022
    120  CD1       -3.5020   -9.7400   23.8930 C.3   222  LEU222      0.0001
    121  CD2       -2.0070  -11.1670   22.4330 C.3   222  LEU222      0.0001
    122  N         -4.8500  -15.6760   23.8870 N.am  223  TYR223     -0.1974
    123  CA        -4.9780  -16.7940   24.8240 C.3   223  TYR223      0.1639
    124  C         -3.6490  -17.4980   25.1090 C.2   223  TYR223      0.2290
    125  O         -2.8150  -17.7000   24.2190 O.2   223  TYR223     -0.2864
    126  CB        -5.9970  -17.8190   24.3210 C.3   223  TYR223      0.0560
    127  CG        -7.4350  -17.3840   24.4800 C.ar  223  TYR223     -0.0198
    128  CD1       -7.9700  -16.3760   23.6820 C.ar  223  TYR223     -0.0009
    129  CD2       -8.2670  -17.9840   25.4300 C.ar  223  TYR223     -0.0009
    130  CE1       -9.3010  -15.9730   23.8180 C.ar  223  TYR223      0.0417
    131  CE2       -9.6030  -17.5860   25.5780 C.ar  223  TYR223      0.0417
    132  CZ       -10.1120  -16.5770   24.7640 C.ar  223  TYR223      0.1957
    133  OH       -11.4240  -16.1650   24.8880 O.3   223  TYR223     -0.2866
@<TRIPOS>BOND
     1   100    99   ar
     2   101    99   ar
     3    99    98    1
     4    98    97    1
     5    97    94    1
     6    96    95    2
     7    94    95    1
     8    94    93    1
     9    95   102   am
    10    93    84   am
    11   102   103    1
    12   103   104    1
    13    84    85    2
    14    84    83    1
    15   106   104   am
    16   106   107    1
    17    83    82    1
    18    83    86    1
    19    17    18   ar
    20    17    15   ar
    21   112   111   ar
    22   104   105    2
    23    18    16   ar
    24   110   111    1
    25   110   107    1
    26   111   113   ar
    27    90    88   ar
    28    90    92   ar
    29    88    87   ar
    30    15    13   ar
    31   107   108    1
    32    92    91   ar
    33    87    86    1
    34    87    89   ar
    35   109   108    2
    36    16    14   ar
    37    91    89   ar
    38   108   114   am
    39    13    14   ar
    40    13    12    1
    41    73    72    1
    42    24    25    1
    43    24    23    1
    44    25    19    1
    45    12     9    1
    46   114   115    1
    47   121   119    1
    48    23    20    1
    49    77    76    2
    50    72    70   ar
    51    72    71   ar
    52    70    68   ar
    53   119   118    1
    54   119   120    1
    55   115   118    1
    56   115   116    1
    57    19    20    1
    58    19    10   am
    59     9    10    1
    60     9     8    1
    61    76    75    1
    62   128   130   ar
    63   128   127   ar
    64    20    21    1
    65   130   132   ar
    66    71    69   ar
    67   122   116   am
    68   122   123    1
    69    80    78    1
    70    10    11    2
    71   116   117    2
    72   125   124    2
    73    68    67   ar
    74    78    75    1
    75    78    79    1
    76   126   127    1
    77   126   123    1
    78   127   129   ar
    79    75    74    1
    80   132   133    1
    81   132   131   ar
    82    22    21    2
    83   123   124    1
    84    21    26   am
    85    81    79    1
    86    69    67   ar
    87    74    64   am
    88    67    66    1
    89   129   131   ar
    90    26    27    1
    91    64    65    2
    92    64    63    1
    93    66    63    1
    94    63    62    1
    95     6     5    1
    96    27    28    1
    97    27    30    1
    98    37    34    1
    99    28    33   am
   100    28    29    2
   101    33    34    1
   102     7     5    1
   103     5     2    1
   104    34    35    1
   105    58    57    2
   106    32    30    1
   107    62    57   am
   108    30    31    1
   109     4     3    2
   110    57    56    1
   111     2     3    1
   112     2     1    1
   113    61    59    1
   114    35    38   am
   115    35    36    2
   116    60    59    1
   117    38    39    1
   118    56    59    1
   119    56    55    1
   120    45    43   am
   121    55    48   am
   122    41    40    2
   123    39    42    1
   124    39    40    1
   125    53    52   ar
   126    42    43    1
   127    51    52    1
   128    51    50    1
   129    43    44    2
   130    48    49    2
   131    48    47    1
   132    52    54   ar
   133    50    47    1
   134    47    46    1
