@<TRIPOS>MOLECULE
tmp/1t6yB02.pdb
 154 144 0 0 0
SMALL
GASTEIGER

@<TRIPOS>ATOM
      1  N        -15.3250   -1.7780   25.6970 N.3   167  PHE167     -0.1241
      2  CA       -14.8380   -2.7690   24.7450 C.3   167  PHE167      0.1605
      3  C        -14.0030   -3.8450   25.4510 C.2   167  PHE167      0.2264
      4  O        -13.5370   -3.6290   26.5670 O.2   167  PHE167     -0.2867
      5  CB       -14.0290   -2.0610   23.6520 C.3   167  PHE167      0.0534
      6  CG       -14.8800   -1.4710   22.5500 C.ar  167  PHE167     -0.0203
      7  CD1      -16.0500   -0.7690   22.8460 C.ar  167  PHE167     -0.0042
      8  CD2      -14.5150   -1.6190   21.2150 C.ar  167  PHE167     -0.0042
      9  CE1      -16.8420   -0.2260   21.8240 C.ar  167  PHE167     -0.0003
     10  CE2      -15.2990   -1.0800   20.1920 C.ar  167  PHE167     -0.0003
     11  CZ       -16.4640   -0.3840   20.4970 C.ar  167  PHE167     -0.0000
     12  N        -11.9050   -6.6270   27.4630 N.3   169  THR169     -0.1218
     13  CA       -10.9550   -6.4300   28.5710 C.3   169  THR169      0.1862
     14  C        -10.1860   -7.7130   28.8560 C.2   169  THR169      0.2287
     15  O        -10.7880   -8.7560   29.0740 O.2   169  THR169     -0.2866
     16  CB       -11.6800   -6.0350   29.8720 C.3   169  THR169      0.1770
     17  OG1      -12.6160   -7.0580   30.2240 O.3   169  THR169     -0.2211
     18  CG2      -12.4240   -4.7330   29.7000 C.3   169  THR169      0.0375
     19  N        -10.1930    2.1740   39.1080 N.3   186  VAL186     -0.1245
     20  CA        -9.6640    2.2300   37.7440 C.3   186  VAL186      0.1561
     21  C         -8.3340    2.9640   37.6720 C.2   186  VAL186      0.2260
     22  O         -8.1860    4.0550   38.2130 O.2   186  VAL186     -0.2867
     23  CB       -10.6710    2.9180   36.7530 C.3   186  VAL186      0.0252
     24  CG1      -10.3670    2.4780   35.3410 C.3   186  VAL186      0.0019
     25  CG2      -12.1190    2.5580   37.0960 C.3   186  VAL186      0.0019
     26  N         -6.2210    0.8340   30.1620 N.3   202  VAL202     -0.1245
     27  CA        -6.8870    1.2210   31.4000 C.3   202  VAL202      0.1561
     28  C         -7.3470   -0.0370   32.1220 C.2   202  VAL202      0.2260
     29  O         -8.0100   -0.9100   31.5390 O.2   202  VAL202     -0.2867
     30  CB        -8.0920    2.1730   31.1700 C.3   202  VAL202      0.0252
     31  CG1       -7.6130    3.4550   30.5670 C.3   202  VAL202      0.0019
     32  CG2       -9.1290    1.5300   30.2950 C.3   202  VAL202      0.0019
     33  N         -9.0500   -2.0370   35.6750 N.3   204  ASN204     -0.1240
     34  CA       -10.0180   -1.8890   36.7400 C.3   204  ASN204      0.1653
     35  C         -9.9420   -3.0890   37.6480 C.2   204  ASN204      0.2266
     36  O         -9.8990   -4.2480   37.1920 O.2   204  ASN204     -0.2867
     37  CB       -11.4470   -1.7390   36.1940 C.3   204  ASN204      0.1155
     38  CG       -12.5210   -1.8860   37.2850 C.2   204  ASN204      0.2627
     39  OD1      -13.0440   -2.9870   37.5110 O.2   204  ASN204     -0.2716
     40  ND2      -12.8530   -0.7760   37.9690 N.am  204  ASN204     -0.0877
     41  N        -14.1580   -5.9630   43.5460 N.3   207  PHE207     -0.1241
     42  CA       -14.5170   -7.1110   44.4090 C.3   207  PHE207      0.1605
     43  C        -13.9690   -6.9630   45.8420 C.2   207  PHE207      0.2264
     44  O        -14.1000   -5.9220   46.4870 O.2   207  PHE207     -0.2867
     45  CB       -13.9820   -8.4370   43.8550 C.3   207  PHE207      0.0534
     46  CG       -14.8860   -9.1040   42.8790 C.ar  207  PHE207     -0.0203
     47  CD1      -16.1370   -9.5540   43.2750 C.ar  207  PHE207     -0.0042
     48  CD2      -14.4800   -9.2990   41.5630 C.ar  207  PHE207     -0.0042
     49  CE1      -16.9750  -10.1890   42.3700 C.ar  207  PHE207     -0.0003
     50  CE2      -15.3040   -9.9310   40.6500 C.ar  207  PHE207     -0.0003
     51  CZ       -16.5580  -10.3800   41.0490 C.ar  207  PHE207     -0.0000
     52  N        -10.4750   -9.1600   40.9880 N.3   210  LYS210     -0.1245
     53  CA       -10.3900   -9.3430   39.5460 C.3   210  LYS210      0.1561
     54  C         -9.6730   -8.1700   38.8690 C.2   210  LYS210      0.2260
     55  O         -9.9370   -7.0120   39.1800 O.2   210  LYS210     -0.2867
     56  CB       -11.8080   -9.5010   38.9750 C.3   210  LYS210      0.0271
     57  CG       -11.9200  -10.5000   37.8260 C.3   210  LYS210      0.0035
     58  CD       -13.3680  -10.6940   37.3820 C.3   210  LYS210      0.0206
     59  CE       -13.4950  -11.7560   36.2880 C.3   210  LYS210      0.1093
     60  NZ       -13.0080  -13.1090   36.7130 N.3   210  LYS210     -0.1314
     61  N         -8.7240   -6.6290   35.0140 N.3   212  GLU212     -0.1245
     62  CA        -8.9960   -6.6560   33.5680 C.3   212  GLU212      0.1567
     63  C         -8.5980   -5.3460   32.9190 C.2   212  GLU212      0.2260
     64  O         -9.0460   -4.2880   33.3520 O.2   212  GLU212     -0.2867
     65  CB       -10.4860   -6.8860   33.3090 C.3   212  GLU212      0.0388
     66  CG       -11.0000   -8.2330   33.7590 C.3   212  GLU212      0.1160
     67  CD       -12.4710   -8.2020   34.1110 C.2   212  GLU212      0.3649
     68  OE1      -13.2870   -7.8220   33.2450 O.co2 212  GLU212     -0.2457
     69  OE2      -12.8030   -8.5620   35.2590 O.co2 212  GLU212     -0.2457
     70  N         -8.2010   -2.8930   29.3730 N.3   214  TYR214     -0.1241
     71  CA        -8.6360   -2.6110   28.0260 C.3   214  TYR214      0.1605
     72  C         -7.5380   -1.7810   27.4150 C.2   214  TYR214      0.2264
     73  O         -7.4670   -0.5780   27.6400 O.2   214  TYR214     -0.2867
     74  CB        -9.9440   -1.8160   28.0110 C.3   214  TYR214      0.0534
     75  CG       -10.3020   -1.3460   26.6150 C.ar  214  TYR214     -0.0201
     76  CD1      -10.3480   -2.2440   25.5460 C.ar  214  TYR214     -0.0009
     77  CD2      -10.5190   -0.0020   26.3480 C.ar  214  TYR214     -0.0009
     78  CE1      -10.5880   -1.8130   24.2550 C.ar  214  TYR214      0.0417
     79  CE2      -10.7640    0.4380   25.0560 C.ar  214  TYR214      0.0417
     80  CZ       -10.7920   -0.4690   24.0160 C.ar  214  TYR214      0.1957
     81  OH       -10.9980   -0.0120   22.7350 O.3   214  TYR214     -0.2866
     82  N        -10.2700    6.4810   39.4600 N.3   236  ARG236     -0.1245
     83  CA       -11.5490    6.5550   40.1920 C.3   236  ARG236      0.1563
     84  C        -11.8800    5.3330   41.0410 C.2   236  ARG236      0.2260
     85  O        -11.2760    4.2750   40.8780 O.2   236  ARG236     -0.2867
     86  CB       -12.7210    6.7960   39.2300 C.3   236  ARG236      0.0307
     87  CG       -13.2280    5.5550   38.4870 C.3   236  ARG236      0.0489
     88  CD       -14.4640    5.8640   37.6210 C.3   236  ARG236      0.2205
     89  NE       -14.6830    4.8130   36.6350 N.pl3 236  ARG236     -0.0865
     90  CZ       -15.4440    3.7400   36.8180 C.cat 236  ARG236      0.5346
     91  NH1      -16.1040    3.5610   37.9520 N.pl3 236  ARG236      0.1354
     92  NH2      -15.4860    2.8090   35.8820 N.pl3 236  ARG236      0.1354
     93  N        -13.8520    2.1500   42.0150 N.3   238  GLU238     -0.1231
     94  CA       -14.7270    1.1600   41.3810 C.3   238  GLU238      0.1699
     95  C        -16.0910    1.1650   42.1060 C.2   238  GLU238      0.2592
     96  O        -16.2590    0.5670   43.1710 O.2   238  GLU238     -0.2718
     97  CB       -14.0560   -0.2240   41.4030 C.3   238  GLU238      0.0402
     98  CG       -14.7830   -1.3330   40.6520 C.3   238  GLU238      0.1161
     99  CD       -15.9220   -1.9320   41.4730 C.2   238  GLU238      0.3649
    100  OE1      -17.1010   -1.6590   41.1580 O.co2 238  GLU238     -0.2457
    101  OE2      -15.6450   -2.6700   42.4480 O.co2 238  GLU238     -0.2457
    102  N        -17.0490    1.8630   41.4910 N.am  239  LYS239     -0.1966
    103  CA       -18.4150    2.0680   41.9880 C.3   239  LYS239      0.1728
    104  C        -19.4610    1.1300   41.3730 C.2   239  LYS239      0.2616
    105  O        -19.1730    0.4130   40.4140 O.2   239  LYS239     -0.2715
    106  CB       -18.8010    3.5260   41.6960 C.3   239  LYS239      0.0311
    107  CG       -20.2480    3.9050   41.9150 C.3   239  LYS239      0.0038
    108  CD       -20.4740    5.3370   41.4620 C.3   239  LYS239      0.0206
    109  CE       -21.9180    5.7700   41.6480 C.3   239  LYS239      0.1093
    110  NZ       -22.1730    7.0300   40.9040 N.3   239  LYS239     -0.1314
    111  N        -20.6720    1.1360   41.9290 N.am  240  LYS240     -0.1963
    112  CA       -21.7630    0.3090   41.4060 C.3   240  LYS240      0.1728
    113  C        -22.5910    1.1000   40.3980 C.2   240  LYS240      0.2616
    114  O        -22.8850    2.2870   40.5950 O.2   240  LYS240     -0.2715
    115  CB       -22.6970   -0.1840   42.5260 C.3   240  LYS240      0.0311
    116  CG       -22.4070   -1.5940   43.0600 C.3   240  LYS240      0.0038
    117  CD       -22.5320   -2.6900   41.9850 C.3   240  LYS240      0.0206
    118  CE       -22.3110   -4.1040   42.5700 C.3   240  LYS240      0.1093
    119  NZ       -22.3580   -5.2120   41.5490 N.3   240  LYS240     -0.1314
    120  N        -22.9570    0.4240   39.3170 N.am  241  PHE241     -0.1974
    121  CA       -23.7610    1.0180   38.2640 C.3   241  PHE241      0.1639
    122  C        -25.0010    0.1540   38.0960 C.2   241  PHE241      0.2290
    123  O        -24.9250   -0.9460   37.5490 O.2   241  PHE241     -0.2864
    124  CB       -22.9650    1.0570   36.9630 C.3   241  PHE241      0.0560
    125  CG       -21.7850    1.9810   37.0020 C.ar  241  PHE241     -0.0200
    126  CD1      -20.6680    1.7280   36.2170 C.ar  241  PHE241     -0.0042
    127  CD2      -21.7890    3.1080   37.8160 C.ar  241  PHE241     -0.0042
    128  CE1      -19.5650    2.5800   36.2380 C.ar  241  PHE241     -0.0003
    129  CE2      -20.6950    3.9680   37.8470 C.ar  241  PHE241     -0.0003
    130  CZ       -19.5780    3.7020   37.0560 C.ar  241  PHE241     -0.0000
    131  N        -22.5030    2.1890   32.9880 N.3   247  LEU247     -0.1245
    132  CA       -21.1700    1.6320   32.9890 C.3   247  LEU247      0.1561
    133  C        -20.5410    2.0340   31.6590 C.2   247  LEU247      0.2260
    134  O        -19.5150    2.7160   31.6480 O.2   247  LEU247     -0.2867
    135  CB       -21.2160    0.1010   33.1340 C.3   247  LEU247      0.0270
    136  CG       -19.9000   -0.6940   33.1330 C.3   247  LEU247      0.0019
    137  CD1      -18.9040   -0.0660   34.0900 C.3   247  LEU247      0.0001
    138  CD2      -20.1730   -2.1330   33.5340 C.3   247  LEU247      0.0001
    139  N        -17.0890    3.8310   31.6320 N.3   251  ILE251     -0.1245
    140  CA       -15.9390    3.2040   30.9940 C.3   251  ILE251      0.1561
    141  C        -15.3680    4.0820   29.8960 C.2   251  ILE251      0.2260
    142  O        -14.1450    4.1580   29.7140 O.2   251  ILE251     -0.2867
    143  CB       -16.3000    1.8440   30.3820 C.3   251  ILE251      0.0252
    144  CG1      -16.9780    0.9700   31.4430 C.3   251  ILE251      0.0019
    145  CG2      -15.0450    1.1810   29.8330 C.3   251  ILE251      0.0019
    146  CD1      -17.0500   -0.5070   31.1130 C.3   251  ILE251      0.0001
    147  N        -13.8600    7.0520   31.2600 N.3   254  ASP254     -0.1239
    148  CA       -12.5580    6.6430   31.7930 C.3   254  ASP254      0.1674
    149  C        -11.5200    6.6670   30.6730 C.2   254  ASP254      0.2266
    150  O        -10.4200    7.2180   30.8330 O.2   254  ASP254     -0.2867
    151  CB       -12.6060    5.2180   32.3830 C.3   254  ASP254      0.1410
    152  CG       -13.4470    5.1150   33.6630 C.2   254  ASP254      0.3668
    153  OD1      -13.6420    6.1460   34.3520 O.co2 254  ASP254     -0.2456
    154  OD2      -13.8960    3.9860   33.9880 O.co2 254  ASP254     -0.2456
@<TRIPOS>BOND
     1    10    11   ar
     2    10     8   ar
     3    11     9   ar
     4     8     6   ar
     5     9     7   ar
     6     6     7   ar
     7     6     5    1
     8    81    80    1
     9     5     2    1
    10    80    78   ar
    11    80    79   ar
    12    78    76   ar
    13     2     3    1
    14     2     1    1
    15    79    77   ar
    16     3     4    2
    17    76    75   ar
    18    77    75   ar
    19    75    74    1
    20    72    73    2
    21    72    71    1
    22    12    13    1
    23    74    71    1
    24    71    70    1
    25    13    14    1
    26    13    16    1
    27    14    15    2
    28    18    16    1
    29   142   141    2
    30   145   143    1
    31    16    17    1
    32   141   140    1
    33    26    27    1
    34    32    30    1
    35   143   140    1
    36   143   144    1
    37    31    30    1
    38   149   150    2
    39   149   148    1
    40   140   139    1
    41   146   144    1
    42    30    27    1
    43   147   148    1
    44    27    28    1
    45    29    28    2
    46   134   133    2
    47   133   132    1
    48   148   151    1
    49   151   152    1
    50    63    64    2
    51    63    62    1
    52   131   132    1
    53   132   135    1
    54   136   135    1
    55   136   138    1
    56   136   137    1
    57    68    67   ar
    58    65    62    1
    59    65    66    1
    60    62    61    1
    61   152   154   ar
    62   152   153   ar
    63    66    67    1
    64    67    69   ar
    65    24    23    1
    66    33    34    1
    67    92    90    1
    68    37    34    1
    69    37    38    1
    70   126   128   ar
    71   126   125   ar
    72   128   130   ar
    73    59    60    1
    74    59    58    1
    75    89    90    2
    76    89    88    1
    77    34    35    1
    78    23    25    1
    79    23    20    1
    80    90    91    1
    81   124   125    1
    82   124   121    1
    83   125   127   ar
    84   130   129   ar
    85    36    35    2
    86    38    39    2
    87    38    40   am
    88    58    57    1
    89   123   122    2
    90    88    87    1
    91    21    20    1
    92    21    22    2
    93    20    19    1
    94   127   129   ar
    95    57    56    1
    96   122   121    1
    97   121   120    1
    98    87    86    1
    99    54    55    2
   100    54    53    1
   101    56    53    1
   102    86    83    1
   103   120   113   am
   104    82    83    1
   105    53    52    1
   106    83    84    1
   107   113   114    2
   108   113   112    1
   109   105   104    2
   110    50    51   ar
   111    50    48   ar
   112    98    97    1
   113    98    99    1
   114    85    84    2
   115   110   109    1
   116    51    49   ar
   117   100    99   ar
   118   104   111   am
   119   104   103    1
   120    94    97    1
   121    94    93    1
   122    94    95    1
   123   112   111    1
   124   112   115    1
   125   108   109    1
   126   108   107    1
   127    99   101   ar
   128   102   103    1
   129   102    95   am
   130   119   118    1
   131    48    46   ar
   132   106   107    1
   133   106   103    1
   134   117   118    1
   135   117   116    1
   136    95    96    2
   137    49    47   ar
   138   115   116    1
   139    46    47   ar
   140    46    45    1
   141    41    42    1
   142    45    42    1
   143    42    43    1
   144    43    44    2
