@<TRIPOS>MOLECULE
tmp/1t6yB01.pdb
 162 159 0 0 0
SMALL
GASTEIGER

@<TRIPOS>ATOM
      1  N         22.0200  -11.3970   52.0390 N.3     4  ILE4       -0.1231
      2  CA        20.9250  -12.2570   52.4610 C.3     4  ILE4        0.1692
      3  C         19.6470  -11.4790   52.7810 C.2     4  ILE4        0.2593
      4  O         19.6800  -10.2730   52.9280 O.2     4  ILE4       -0.2718
      5  CB        21.3880  -13.1070   53.7140 C.3     4  ILE4        0.0266
      6  CG1       22.7330  -13.7830   53.3890 C.3     4  ILE4        0.0019
      7  CG2       20.3370  -14.1760   54.0890 C.3     4  ILE4        0.0020
      8  CD1       23.4570  -14.3860   54.5690 C.3     4  ILE4        0.0001
      9  N         18.5200  -12.1810   52.8740 N.am    5  GLY5       -0.1942
     10  CA        17.2420  -11.5430   53.1440 C.3     5  GLY5        0.2014
     11  C         16.2440  -11.8940   52.0430 C.2     5  GLY5        0.2639
     12  O         16.6560  -12.4410   51.0140 O.2     5  GLY5       -0.2714
     13  N         14.9570  -11.5870   52.2720 N.am    6  VAL6       -0.1963
     14  CA        13.8400  -11.8150   51.3250 C.3     6  VAL6        0.1727
     15  C         13.9950  -11.0840   49.9700 C.2     6  VAL6        0.2616
     16  O         14.1100  -11.7180   48.9150 O.2     6  VAL6       -0.2715
     17  CB        12.4830  -11.3300   51.8920 C.3     6  VAL6        0.0290
     18  CG1       11.4180  -11.4660   50.8120 C.3     6  VAL6        0.0023
     19  CG2       12.0720  -12.1390   53.1390 C.3     6  VAL6        0.0023
     20  N         13.9510   -9.7520   50.0070 N.am    7  PHE7       -0.1974
     21  CA        14.1110   -8.9460   48.8040 C.3     7  PHE7        0.1639
     22  C         12.8410   -8.7670   47.9240 C.2     7  PHE7        0.2290
     23  O         12.9400   -8.5400   46.7140 O.2     7  PHE7       -0.2864
     24  CB        15.2470   -9.5060   47.9570 C.3     7  PHE7        0.0560
     25  CG        16.6200   -9.2510   48.5140 C.ar    7  PHE7       -0.0200
     26  CD1       17.1490   -7.9700   48.5370 C.ar    7  PHE7       -0.0042
     27  CD2       17.4270  -10.3100   48.9260 C.ar    7  PHE7       -0.0042
     28  CE1       18.4710   -7.7440   48.9510 C.ar    7  PHE7       -0.0003
     29  CE2       18.7340  -10.0910   49.3330 C.ar    7  PHE7       -0.0003
     30  CZ        19.2580   -8.8000   49.3420 C.ar    7  PHE7       -0.0000
     31  N         13.4440   -3.0550   46.0160 N.3    11  HIS11      -0.1241
     32  CA        13.3910   -1.6090   46.0210 C.3    11  HIS11       0.1621
     33  C         14.7560   -0.9690   46.2160 C.2    11  HIS11       0.2264
     34  O         15.7530   -1.6620   46.4190 O.2    11  HIS11      -0.2867
     35  CB        12.4210   -1.1270   47.0890 C.3    11  HIS11       0.0745
     36  CG        12.5810   -1.7990   48.4110 C.ar   11  HIS11       0.0817
     37  ND1       13.7950   -1.9140   49.0460 N.ar   11  HIS11      -0.2268
     38  CD2       11.6610   -2.3180   49.2580 C.ar   11  HIS11       0.1154
     39  CE1       13.6140   -2.4720   50.2310 C.ar   11  HIS11       0.1986
     40  NE2       12.3260   -2.7280   50.3840 N.ar   11  HIS11      -0.2212
     41  N         16.2550    0.2410   48.5710 N.3    13  GLY13      -0.1210
     42  CA        16.9900   -0.2240   49.7330 C.3    13  GLY13       0.1956
     43  C         17.7670   -1.4230   49.2090 C.2    13  GLY13       0.2611
     44  O         18.9980   -1.3870   49.0480 O.2    13  GLY13      -0.2717
     45  N         17.0230   -2.4780   48.8950 N.am   14  HIS14      -0.1975
     46  CA        17.5740   -3.7150   48.3420 C.3    14  HIS14       0.1656
     47  C         18.7080   -3.4550   47.3500 C.2    14  HIS14       0.2291
     48  O         19.6660   -4.2200   47.2730 O.2    14  HIS14      -0.2864
     49  CB        16.4820   -4.5000   47.5830 C.3    14  HIS14       0.0771
     50  CG        15.3740   -5.0240   48.4440 C.ar   14  HIS14       0.0820
     51  ND1       14.0940   -5.2060   47.9690 N.ar   14  HIS14      -0.2267
     52  CD2       15.3560   -5.4350   49.7330 C.ar   14  HIS14       0.1154
     53  CE1       13.3330   -5.7050   48.9270 C.ar   14  HIS14       0.1986
     54  NE2       14.0750   -5.8540   50.0090 N.ar   14  HIS14      -0.2212
     55  N         20.8660   -0.7960   47.1300 N.3    16  LYS16      -0.1231
     56  CA        22.0470   -0.2150   47.7610 C.3    16  LYS16       0.1693
     57  C         22.8400   -1.3470   48.3830 C.2    16  LYS16       0.2591
     58  O         24.0620   -1.2920   48.4760 O.2    16  LYS16      -0.2718
     59  CB        21.6260    0.7580   48.8540 C.3    16  LYS16       0.0285
     60  CG        22.7730    1.3530   49.6330 C.3    16  LYS16       0.0035
     61  CD        22.2350    2.1660   50.7960 C.3    16  LYS16       0.0206
     62  CE        23.3410    2.9070   51.4980 C.3    16  LYS16       0.1093
     63  NZ        24.1110    3.6840   50.4910 N.3    16  LYS16      -0.1314
     64  N         22.1090   -2.3670   48.8230 N.am   17  VAL17      -0.1980
     65  CA        22.6890   -3.5540   49.4240 C.3    17  VAL17       0.1595
     66  C         23.4040   -4.3580   48.3410 C.2    17  VAL17       0.2287
     67  O         24.5790   -4.7170   48.4790 O.2    17  VAL17      -0.2864
     68  CB        21.5910   -4.4370   50.0410 C.3    17  VAL17       0.0276
     69  CG1       22.1470   -5.8130   50.3540 C.3    17  VAL17       0.0022
     70  CG2       21.0130   -3.7680   51.2890 C.3    17  VAL17       0.0022
     71  N         24.5680   -6.7370   54.3280 N.3    97  VAL97      -0.1231
     72  CA        23.1770   -6.6620   54.7390 C.3    97  VAL97       0.1692
     73  C         22.9830   -5.2540   55.2890 C.2    97  VAL97       0.2593
     74  O         23.7320   -4.3510   54.9330 O.2    97  VAL97      -0.2718
     75  CB        22.8230   -7.6980   55.8060 C.3    97  VAL97       0.0266
     76  CG1       22.7990   -9.0790   55.1820 C.3    97  VAL97       0.0020
     77  CG2       23.7940   -7.6250   56.9510 C.3    97  VAL97       0.0020
     78  N         21.9810   -5.0460   56.1300 N.am   98  GLY98      -0.1942
     79  CA        21.7670   -3.7240   56.6860 C.3    98  GLY98       0.2014
     80  C         21.3830   -3.8890   58.1410 C.2    98  GLY98       0.2639
     81  O         21.2780   -5.0190   58.6220 O.2    98  GLY98      -0.2714
     82  N         21.1680   -2.7940   58.8630 N.am   99  ARG99      -0.1963
     83  CA        20.8030   -2.9290   60.2630 C.3    99  ARG99       0.1729
     84  C         19.5400   -3.7690   60.2930 C.2    99  ARG99       0.2616
     85  O         18.8110   -3.8580   59.3030 O.2    99  ARG99      -0.2715
     86  CB        20.5350   -1.5650   60.9040 C.3    99  ARG99       0.0348
     87  CG        21.3200   -0.4210   60.2930 C.3    99  ARG99       0.0492
     88  CD        22.8160   -0.6980   60.2340 C.3    99  ARG99       0.2205
     89  NE        23.5420   -0.1950   61.3970 N.pl3  99  ARG99      -0.0865
     90  CZ        23.5580   -0.7740   62.5940 C.cat  99  ARG99       0.5346
     91  NH1       22.8810   -1.8920   62.8110 N.pl3  99  ARG99       0.1354
     92  NH2       24.2710   -0.2460   63.5740 N.pl3  99  ARG99       0.1354
     93  N         19.2920   -4.3880   61.4360 N.am  100  ASP100     -0.1957
     94  CA        18.1230   -5.2420   61.6570 C.3   100  ASP100      0.1840
     95  C         18.1200   -6.5590   60.8850 C.2   100  ASP100      0.2622
     96  O         17.0710   -7.1780   60.7270 O.2   100  ASP100     -0.2715
     97  CB        16.8080   -4.4890   61.3850 C.3   100  ASP100      0.1450
     98  CG        15.6510   -4.9740   62.2810 C.2   100  ASP100      0.3671
     99  OD1       15.3990   -6.2000   62.3360 O.co2 100  ASP100     -0.2456
    100  OD2       14.9910   -4.1240   62.9270 O.co2 100  ASP100     -0.2456
    101  N         19.2800   -6.9850   60.3930 N.am  101  PHE101     -0.1974
    102  CA        19.3430   -8.2780   59.7310 C.3   101  PHE101      0.1639
    103  C         19.5290   -9.3420   60.8040 C.2   101  PHE101      0.2290
    104  O         20.4830   -9.2930   61.5960 O.2   101  PHE101     -0.2864
    105  CB        20.5110   -8.4090   58.7620 C.3   101  PHE101      0.0560
    106  CG        20.7660   -9.8400   58.3420 C.ar  101  PHE101     -0.0200
    107  CD1       19.7020  -10.7210   58.1490 C.ar  101  PHE101     -0.0042
    108  CD2       22.0490  -10.3080   58.1380 C.ar  101  PHE101     -0.0042
    109  CE1       19.9180  -12.0350   57.7640 C.ar  101  PHE101     -0.0003
    110  CE2       22.2690  -11.6300   57.7490 C.ar  101  PHE101     -0.0003
    111  CZ        21.2010  -12.4870   57.5650 C.ar  101  PHE101     -0.0000
    112  N         24.6230   -1.7280   56.0430 N.3   124  ILE124     -0.1231
    113  CA        24.3550   -0.6160   55.1490 C.3   124  ILE124      0.1692
    114  C         23.3270    0.2400   55.8450 C.2   124  ILE124      0.2592
    115  O         22.3240   -0.2770   56.3530 O.2   124  ILE124     -0.2718
    116  CB        23.7630   -1.1530   53.8370 C.3   124  ILE124      0.0266
    117  CG1       24.7550   -2.1150   53.2010 C.3   124  ILE124      0.0019
    118  CG2       23.4530   -0.0280   52.8780 C.3   124  ILE124      0.0020
    119  CD1       25.7940   -1.4360   52.3840 C.3   124  ILE124      0.0001
    120  N         23.5580    1.5470   55.8720 N.am  125  GLU125     -0.1966
    121  CA        22.6030    2.4080   56.5440 C.3   125  GLU125      0.1733
    122  C         21.2470    2.3680   55.8750 C.2   125  GLU125      0.2616
    123  O         21.1520    2.3510   54.6480 O.2   125  GLU125     -0.2715
    124  CB        23.1170    3.8420   56.6410 C.3   125  GLU125      0.0429
    125  CG        23.3010    4.2520   58.0930 C.3   125  GLU125      0.1163
    126  CD        22.3770    3.4650   59.0250 C.2   125  GLU125      0.3649
    127  OE1       21.1360    3.5560   58.8780 O.co2 125  GLU125     -0.2457
    128  OE2       22.8950    2.7390   59.8990 O.co2 125  GLU125     -0.2457
    129  N         20.1930    2.3240   56.6830 N.am  126  ASP126     -0.1957
    130  CA        18.8630    2.2610   56.1130 C.3   126  ASP126      0.1840
    131  C         18.6280    3.4820   55.2260 C.2   126  ASP126      0.2621
    132  O         18.9050    4.6170   55.6210 O.2   126  ASP126     -0.2715
    133  CB        17.7800    2.1170   57.2140 C.3   126  ASP126      0.1450
    134  CG        17.0480    0.7340   57.1630 C.2   126  ASP126      0.3671
    135  OD1       17.7070   -0.3260   57.3130 O.co2 126  ASP126     -0.2456
    136  OD2       15.8080    0.7050   56.9660 O.co2 126  ASP126     -0.2456
    137  N         18.1700    3.2040   54.0020 N.am  127  VAL127     -0.1977
    138  CA        17.8590    4.2050   52.9880 C.3   127  VAL127      0.1596
    139  C         16.5100    4.8370   53.2700 C.2   127  VAL127      0.2287
    140  O         15.4730    4.1540   53.2550 O.2   127  VAL127     -0.2864
    141  CB        17.7660    3.5940   51.6100 C.3   127  VAL127      0.0276
    142  CG1       17.5250    4.6870   50.6060 C.3   127  VAL127      0.0022
    143  CG2       19.0310    2.8340   51.2920 C.3   127  VAL127      0.0022
    144  N         12.8830    2.7630   53.7290 N.3   134  VAL134     -0.1231
    145  CA        12.2920    2.0350   52.6070 C.3   134  VAL134      0.1692
    146  C         12.0070    0.5830   53.0050 C.2   134  VAL134      0.2593
    147  O         12.9100   -0.1100   53.4550 O.2   134  VAL134     -0.2718
    148  CB        13.2310    2.0160   51.3750 C.3   134  VAL134      0.0266
    149  CG1       12.6020    1.2000   50.2540 C.3   134  VAL134      0.0020
    150  CG2       13.4990    3.4230   50.9080 C.3   134  VAL134      0.0020
    151  N         10.7720    0.1110   52.8290 N.am  135  SER135     -0.1938
    152  CA        10.4580   -1.2610   53.1980 C.3   135  SER135      0.2055
    153  C          9.3480   -1.9350   52.3790 C.2   135  SER135      0.2643
    154  O          8.3040   -1.3320   52.1260 O.2   135  SER135     -0.2714
    155  CB        10.1060   -1.3320   54.6980 C.3   135  SER135      0.2130
    156  OG         8.8300   -0.7700   55.0160 O.3   135  SER135     -0.2179
    157  N          9.5940   -3.1850   51.9750 N.am  136  SER136     -0.1949
    158  CA         8.6290   -3.9940   51.2460 C.3   136  SER136      0.1924
    159  C          7.2670   -3.8000   51.8580 C.2   136  SER136      0.2314
    160  O          6.2500   -3.7440   51.1510 O.2   136  SER136     -0.2863
    161  CB         8.9500   -5.4750   51.3640 C.3   136  SER136      0.2116
    162  OG        10.1260   -5.8300   50.6250 O.3   136  SER136     -0.2180
@<TRIPOS>BOND
     1    31    32    1
     2    32    33    1
     3    32    35    1
     4    33    34    2
     5    23    22    2
     6    35    36    1
     7    55    56    1
     8    48    47    2
     9    47    46    1
    10    49    46    1
    11    49    50    1
    12    56    57    1
    13    56    59    1
    14    22    21    1
    15    24    25    1
    16    24    21    1
    17    51    50   ar
    18    51    53   ar
    19    66    67    2
    20    66    65    1
    21    46    45    1
    22    57    58    2
    23    57    64   am
    24    36    37   ar
    25    36    38   ar
    26    50    52   ar
    27    25    26   ar
    28    25    27   ar
    29    26    28   ar
    30    41    42    1
    31    21    20    1
    32    64    65    1
    33    59    60    1
    34    45    43   am
    35    16    15    2
    36    27    29   ar
    37    53    54   ar
    38    28    30   ar
    39    37    39   ar
    40    44    43    2
    41    43    42    1
    42    38    40   ar
    43    29    30   ar
    44    65    68    1
    45    60    61    1
    46    52    54   ar
    47    15    20   am
    48    15    14    1
    49    68    69    1
    50    68    70    1
    51    39    40   ar
    52   149   148    1
    53    63    62    1
    54   142   141    1
    55   162   161    1
    56    61    62    1
    57    18    17    1
    58   150   148    1
    59    12    11    2
    60   160   159    2
    61   158   161    1
    62   158   159    1
    63   158   157    1
    64   143   141    1
    65    14    17    1
    66    14    13    1
    67   148   145    1
    68   141   138    1
    69    17    19    1
    70   157   153   am
    71     1     2    1
    72    11    13   am
    73    11    10    1
    74   154   153    2
    75   153   152    1
    76   119   117    1
    77     2     3    1
    78     2     5    1
    79   145   146    1
    80   145   144    1
    81     3     9   am
    82     3     4    2
    83   151   146   am
    84   151   152    1
    85     9    10    1
    86   118   116    1
    87   138   139    1
    88   138   137    1
    89   146   147    2
    90   152   155    1
    91   117   116    1
    92   140   139    2
    93     6     5    1
    94     6     8    1
    95     5     7    1
    96   116   113    1
    97   137   131   am
    98    71    72    1
    99   123   122    2
   100   155   156    1
   101    72    73    1
   102    72    75    1
   103    74    73    2
   104   113   114    1
   105   113   112    1
   106    76    75    1
   107   131   132    2
   108   131   130    1
   109    73    78   am
   110    75    77    1
   111   114   120   am
   112   114   115    2
   113   120   121    1
   114   122   121    1
   115   122   129   am
   116   130   129    1
   117   130   133    1
   118    78    79    1
   119   121   124    1
   120   124   125    1
   121    79    80    1
   122   136   134   ar
   123   134   133    1
   124   134   135   ar
   125   111   110   ar
   126   111   109   ar
   127   110   108   ar
   128   109   107   ar
   129   125   126    1
   130   108   106   ar
   131    80    81    2
   132    80    82   am
   133   107   106   ar
   134   106   105    1
   135   105   102    1
   136    82    83    1
   137   127   126   ar
   138   126   128   ar
   139    85    84    2
   140   102   101    1
   141   102   103    1
   142    88    87    1
   143    88    89    1
   144    83    84    1
   145    83    86    1
   146    87    86    1
   147    84    93   am
   148   101    95   am
   149    96    95    2
   150   103   104    2
   151    95    94    1
   152    97    94    1
   153    97    98    1
   154    89    90    2
   155    93    94    1
   156    98    99   ar
   157    98   100   ar
   158    90    91    1
   159    90    92    1
