@<TRIPOS>MOLECULE
tmp/1t6zB00.pdb
 158 147 0 0 0
SMALL
GASTEIGER

@<TRIPOS>ATOM
      1  N        -11.7150   -7.3020   25.9230 N.3   169  THR169     -0.1218
      2  CA       -10.8530   -7.0470   27.0820 C.3   169  THR169      0.1862
      3  C        -10.1420   -8.3270   27.4690 C.2   169  THR169      0.2287
      4  O        -10.7010   -9.4200   27.3580 O.2   169  THR169     -0.2866
      5  CB       -11.6150   -6.5560   28.3440 C.3   169  THR169      0.1770
      6  OG1      -12.8290   -7.3020   28.5030 O.3   169  THR169     -0.2211
      7  CG2      -11.9010   -5.0620   28.2610 C.3   169  THR169      0.0375
      8  N         -8.7040  -10.7020   30.2610 N.3   171  ASN171     -0.1240
      9  CA        -8.8240  -10.9790   31.6890 C.3   171  ASN171      0.1653
     10  C         -7.4630  -11.5200   32.0890 C.2   171  ASN171      0.2266
     11  O         -6.9620  -12.4710   31.4850 O.2   171  ASN171     -0.2867
     12  CB        -9.9040  -12.0240   31.9760 C.3   171  ASN171      0.1155
     13  CG       -11.3050  -11.4430   31.9370 C.2   171  ASN171      0.2627
     14  OD1      -12.2540  -12.0610   32.4170 O.2   171  ASN171     -0.2716
     15  ND2      -11.4430  -10.2520   31.3600 N.am  171  ASN171     -0.0877
     16  N        -10.8570    1.8800   37.8460 N.3   186  VAL186     -0.1245
     17  CA       -10.3530    1.9250   36.4800 C.3   186  VAL186      0.1561
     18  C         -8.9600    2.5400   36.5060 C.2   186  VAL186      0.2260
     19  O         -8.7350    3.5410   37.1890 O.2   186  VAL186     -0.2867
     20  CB       -11.2850    2.7710   35.5820 C.3   186  VAL186      0.0252
     21  CG1      -11.1320    2.3550   34.1230 C.3   186  VAL186      0.0019
     22  CG2      -12.7200    2.5990   36.0310 C.3   186  VAL186      0.0019
     23  N         -6.7730    0.3240   29.1360 N.3   202  VAL202     -0.1245
     24  CA        -7.5730    0.7940   30.2480 C.3   202  VAL202      0.1561
     25  C         -7.9150   -0.4560   31.0430 C.2   202  VAL202      0.2260
     26  O         -8.5390   -1.3760   30.5200 O.2   202  VAL202     -0.2867
     27  CB        -8.8640    1.5020   29.7350 C.3   202  VAL202      0.0252
     28  CG1       -9.6630    2.0360   30.8870 C.3   202  VAL202      0.0019
     29  CG2       -8.5020    2.6460   28.8210 C.3   202  VAL202      0.0019
     30  N         -9.5750   -2.5600   34.4550 N.3   204  ASN204     -0.1240
     31  CA       -10.5960   -2.4790   35.4720 C.3   204  ASN204      0.1653
     32  C        -10.3920   -3.5200   36.5370 C.2   204  ASN204      0.2266
     33  O        -10.1390   -4.6920   36.2490 O.2   204  ASN204     -0.2867
     34  CB       -11.9930   -2.6230   34.8910 C.3   204  ASN204      0.1155
     35  CG       -13.0670   -2.4930   35.9510 C.2   204  ASN204      0.2627
     36  OD1      -13.5890   -3.4900   36.4560 O.2   204  ASN204     -0.2716
     37  ND2      -13.3930   -1.2610   36.3060 N.am  204  ASN204     -0.0877
     38  N        -15.2350   -6.1900   41.5870 N.3   207  PHE207     -0.1241
     39  CA       -15.6460   -7.1910   42.5830 C.3   207  PHE207      0.1605
     40  C        -15.2330   -6.7580   43.9870 C.2   207  PHE207      0.2264
     41  O        -14.9580   -7.5870   44.8540 O.2   207  PHE207     -0.2867
     42  CB       -15.0420   -8.5650   42.2760 C.3   207  PHE207      0.0534
     43  CG       -15.7960   -9.3410   41.2460 C.ar  207  PHE207     -0.0203
     44  CD1      -16.9140  -10.0860   41.6060 C.ar  207  PHE207     -0.0042
     45  CD2      -15.4000   -9.3210   39.9090 C.ar  207  PHE207     -0.0042
     46  CE1      -17.6300  -10.8020   40.6490 C.ar  207  PHE207     -0.0003
     47  CE2      -16.1090  -10.0330   38.9430 C.ar  207  PHE207     -0.0003
     48  CZ       -17.2270  -10.7750   39.3130 C.ar  207  PHE207     -0.0000
     49  N        -10.9720   -9.3880   40.1080 N.3   210  LYS210     -0.1245
     50  CA       -10.8700   -9.6280   38.6740 C.3   210  LYS210      0.1561
     51  C        -10.1660   -8.4680   37.9610 C.2   210  LYS210      0.2260
     52  O        -10.5460   -7.3130   38.1180 O.2   210  LYS210     -0.2867
     53  CB       -12.2770   -9.8320   38.0970 C.3   210  LYS210      0.0271
     54  CG       -12.3430  -10.7220   36.8660 C.3   210  LYS210      0.0035
     55  CD       -13.7920  -10.9760   36.4530 C.3   210  LYS210      0.0206
     56  CE       -13.8970  -12.1090   35.4420 C.3   210  LYS210      0.1093
     57  NZ       -13.3620  -13.3930   35.9860 N.3   210  LYS210     -0.1314
     58  N         -9.1770   -6.7330   34.3800 N.3   212  GLU212     -0.1245
     59  CA        -9.4990   -6.6890   32.9540 C.3   212  GLU212      0.1567
     60  C         -8.8280   -5.5140   32.2820 C.2   212  GLU212      0.2260
     61  O         -8.8160   -4.4130   32.8340 O.2   212  GLU212     -0.2867
     62  CB       -10.9910   -6.5110   32.7400 C.3   212  GLU212      0.0388
     63  CG       -11.8610   -7.5760   33.3110 C.3   212  GLU212      0.1160
     64  CD       -13.3040   -7.1620   33.2560 C.2   212  GLU212      0.3649
     65  OE1      -13.7350   -6.7180   32.1680 O.co2 212  GLU212     -0.2457
     66  OE2      -14.0000   -7.2720   34.2930 O.co2 212  GLU212     -0.2457
     67  N         -8.6280   -3.2920   28.6340 N.3   214  TYR214     -0.1241
     68  CA        -9.0810   -2.9350   27.2970 C.3   214  TYR214      0.1605
     69  C         -7.8810   -2.3180   26.5970 C.2   214  TYR214      0.2264
     70  O         -7.5330   -1.1620   26.8560 O.2   214  TYR214     -0.2867
     71  CB       -10.2210   -1.9030   27.3650 C.3   214  TYR214      0.0534
     72  CG       -10.5860   -1.3290   26.0120 C.ar  214  TYR214     -0.0201
     73  CD1      -11.2160   -2.1110   25.0460 C.ar  214  TYR214     -0.0009
     74  CD2      -10.2080   -0.0390   25.6620 C.ar  214  TYR214     -0.0009
     75  CE1      -11.4510   -1.6260   23.7630 C.ar  214  TYR214      0.0417
     76  CE2      -10.4350    0.4540   24.3830 C.ar  214  TYR214      0.0417
     77  CZ       -11.0530   -0.3450   23.4380 C.ar  214  TYR214      0.1957
     78  OH       -11.2470    0.1360   22.1630 O.3   214  TYR214     -0.2866
     79  N        -10.7910    6.4920   37.7840 N.3   236  ARG236     -0.1245
     80  CA       -12.0230    6.6560   38.5510 C.3   236  ARG236      0.1563
     81  C        -12.3900    5.4160   39.3660 C.2   236  ARG236      0.2260
     82  O        -11.9960    4.3010   39.0280 O.2   236  ARG236     -0.2867
     83  CB       -13.1800    6.9860   37.6040 C.3   236  ARG236      0.0307
     84  CG       -13.5220    5.8340   36.6770 C.3   236  ARG236      0.0489
     85  CD       -14.7490    6.0710   35.8410 C.3   236  ARG236      0.2205
     86  NE       -15.0250    4.8920   35.0240 N.pl3 236  ARG236     -0.0865
     87  CZ       -15.6420    3.8010   35.4630 C.cat 236  ARG236      0.5346
     88  NH1      -16.0660    3.7370   36.7170 N.pl3 236  ARG236      0.1354
     89  NH2      -15.8150    2.7620   34.6490 N.pl3 236  ARG236      0.1354
     90  N        -14.4950    2.3310   40.7820 N.3   238  GLU238     -0.1231
     91  CA       -15.4200    1.3970   40.1590 C.3   238  GLU238      0.1699
     92  C        -16.7940    1.9130   40.5640 C.2   238  GLU238      0.2592
     93  O        -16.9390    2.4950   41.6390 O.2   238  GLU238     -0.2718
     94  CB       -15.1880   -0.0160   40.7130 C.3   238  GLU238      0.0402
     95  CG       -16.3560   -0.9730   40.5680 C.3   238  GLU238      0.1161
     96  CD       -16.8280   -1.5420   41.9120 C.2   238  GLU238      0.3649
     97  OE1      -17.1340   -0.7520   42.8340 O.co2 238  GLU238     -0.2457
     98  OE2      -16.9030   -2.7850   42.0470 O.co2 238  GLU238     -0.2457
     99  N        -17.7900    1.7490   39.6980 N.am  239  LYS239     -0.1966
    100  CA       -19.1460    2.1880   40.0200 C.3   239  LYS239      0.1728
    101  C        -20.1420    1.0650   39.7560 C.2   239  LYS239      0.2616
    102  O        -19.8560    0.1350   39.0010 O.2   239  LYS239     -0.2715
    103  CB       -19.5540    3.4140   39.1920 C.3   239  LYS239      0.0311
    104  CG       -21.0270    3.7960   39.4120 C.3   239  LYS239      0.0038
    105  CD       -21.5010    5.0210   38.6260 C.3   239  LYS239      0.0206
    106  CE       -22.9630    5.3460   38.9720 C.3   239  LYS239      0.1093
    107  NZ       -23.4340    6.6630   38.4560 N.3   239  LYS239     -0.1314
    108  N        -21.3070    1.1450   40.3920 N.am  240  LYS240     -0.1963
    109  CA       -22.3400    0.1450   40.1760 C.3   240  LYS240      0.1728
    110  C        -23.3090    0.7340   39.1550 C.2   240  LYS240      0.2616
    111  O        -23.7720    1.8660   39.3060 O.2   240  LYS240     -0.2715
    112  CB       -23.0820   -0.1770   41.4780 C.3   240  LYS240      0.0311
    113  CG       -23.3440   -1.6760   41.7180 C.3   240  LYS240      0.0038
    114  CD       -24.0420   -2.3880   40.5380 C.3   240  LYS240      0.0206
    115  CE       -23.0520   -2.8420   39.4540 C.3   240  LYS240      0.1093
    116  NZ       -23.6960   -3.5740   38.3200 N.3   240  LYS240     -0.1314
    117  N        -23.5960   -0.0290   38.1060 N.am  241  PHE241     -0.1974
    118  CA       -24.5040    0.4370   37.0680 C.3   241  PHE241      0.1639
    119  C        -25.8130   -0.3680   37.0290 C.2   241  PHE241      0.2290
    120  O        -25.8200   -1.6020   37.1110 O.2   241  PHE241     -0.2864
    121  CB       -23.8080    0.4050   35.6940 C.3   241  PHE241      0.0560
    122  CG       -22.6590    1.3890   35.5560 C.ar  241  PHE241     -0.0200
    123  CD1      -21.3390    0.9700   35.7090 C.ar  241  PHE241     -0.0042
    124  CD2      -22.8990    2.7240   35.2410 C.ar  241  PHE241     -0.0042
    125  CE1      -20.2780    1.8620   35.5460 C.ar  241  PHE241     -0.0003
    126  CE2      -21.8420    3.6210   35.0760 C.ar  241  PHE241     -0.0003
    127  CZ       -20.5290    3.1860   35.2290 C.ar  241  PHE241     -0.0000
    128  N        -22.8850    1.6360   31.4010 N.3   247  LEU247     -0.1245
    129  CA       -21.5690    1.0110   31.5010 C.3   247  LEU247      0.1561
    130  C        -20.7740    1.2710   30.2290 C.2   247  LEU247      0.2260
    131  O        -19.6670    1.8120   30.2860 O.2   247  LEU247     -0.2867
    132  CB       -21.6920   -0.5020   31.7170 C.3   247  LEU247      0.0270
    133  CG       -20.4040   -1.3260   31.5690 C.3   247  LEU247      0.0019
    134  CD1      -19.3500   -0.8390   32.5630 C.3   247  LEU247      0.0001
    135  CD2      -20.7070   -2.8000   31.7930 C.3   247  LEU247      0.0001
    136  N        -17.3190    3.0840   29.8570 N.3   251  ILE251     -0.1245
    137  CA       -16.1470    2.4590   29.2700 C.3   251  ILE251      0.1561
    138  C        -15.7000    3.3410   28.1220 C.2   251  ILE251      0.2260
    139  O        -14.5150    3.6320   27.9790 O.2   251  ILE251     -0.2867
    140  CB       -16.4330    1.0600   28.7350 C.3   251  ILE251      0.0252
    141  CG1      -16.6960    0.1070   29.9000 C.3   251  ILE251      0.0019
    142  CG2      -15.2530    0.5840   27.9070 C.3   251  ILE251      0.0019
    143  CD1      -16.9450   -1.3220   29.4740 C.3   251  ILE251      0.0001
    144  N        -13.9160    6.2550   29.6450 N.3   254  ASP254     -0.1225
    145  CA       -12.5620    5.8930   30.0580 C.3   254  ASP254      0.1805
    146  C        -11.5170    5.9400   28.9540 C.2   254  ASP254      0.2597
    147  O        -10.4940    6.6180   29.1090 O.2   254  ASP254     -0.2718
    148  CB       -12.5540    4.5060   30.7020 C.3   254  ASP254      0.1424
    149  CG       -13.4760    4.4230   31.8920 C.2   254  ASP254      0.3668
    150  OD1      -13.5810    5.4320   32.6210 O.co2 254  ASP254     -0.2456
    151  OD2      -14.0930    3.3540   32.1060 O.co2 254  ASP254     -0.2456
    152  N        -11.7530    5.2370   27.8440 N.am  255  VAL255     -0.1980
    153  CA       -10.7640    5.2660   26.7740 C.3   255  VAL255      0.1595
    154  C        -10.5970    6.7130   26.2950 C.2   255  VAL255      0.2287
    155  O         -9.4990    7.1180   25.8990 O.2   255  VAL255     -0.2864
    156  CB       -11.1500    4.3580   25.5750 C.3   255  VAL255      0.0276
    157  CG1      -12.0720    3.2490   26.0380 C.3   255  VAL255      0.0022
    158  CG2      -11.7820    5.1740   24.4680 C.3   255  VAL255      0.0022
@<TRIPOS>BOND
     1    78    77    1
     2    77    75   ar
     3    77    76   ar
     4    75    73   ar
     5    76    74   ar
     6   158   156    1
     7    73    72   ar
     8   156   157    1
     9   156   153    1
    10    74    72   ar
    11   155   154    2
    12     1     2    1
    13    72    71    1
    14   154   153    1
    15    69    70    2
    16    69    68    1
    17   153   152    1
    18     2     3    1
    19     2     5    1
    20    68    71    1
    21    68    67    1
    22     4     3    2
    23   152   146   am
    24   142   140    1
    25   139   138    2
    26   138   137    1
    27     7     5    1
    28     5     6    1
    29   140   137    1
    30   140   141    1
    31    29    27    1
    32   146   147    2
    33   146   145    1
    34    23    24    1
    35   137   136    1
    36   143   141    1
    37   144   145    1
    38    27    24    1
    39    27    28    1
    40   145   148    1
    41   130   131    2
    42   130   129    1
    43    24    25    1
    44     8     9    1
    45    26    25    2
    46   148   149    1
    47    15    13   am
    48   128   129    1
    49    11    10    2
    50   129   132    1
    51   133   132    1
    52   133   135    1
    53   133   134    1
    54     9    12    1
    55     9    10    1
    56   149   151   ar
    57   149   150   ar
    58    13    12    1
    59    13    14    2
    60    65    64   ar
    61    60    61    2
    62    60    59    1
    63    62    59    1
    64    62    63    1
    65    59    58    1
    66    64    63    1
    67    64    66   ar
    68    21    20    1
    69    30    31    1
    70    89    87    1
    71    34    31    1
    72    34    35    1
    73    86    87    2
    74    86    85    1
    75   126   127   ar
    76   126   124   ar
    77   127   125   ar
    78   124   122   ar
    79    56    57    1
    80    56    55    1
    81    87    88    1
    82    31    32    1
    83   125   123   ar
    84   122   121    1
    85   122   123   ar
    86    20    22    1
    87    20    17    1
    88   121   118    1
    89    85    84    1
    90    35    37   am
    91    35    36    2
    92    33    32    2
    93    55    54    1
    94    17    18    1
    95    17    16    1
    96    18    19    2
    97    84    83    1
    98    54    53    1
    99   119   118    1
   100   119   120    2
   101   118   117    1
   102    83    80    1
   103    79    80    1
   104    51    52    2
   105    51    50    1
   106    53    50    1
   107   117   110   am
   108   116   115    1
   109   107   106    1
   110    80    81    1
   111   105   106    1
   112   105   104    1
   113    50    49    1
   114    47    48   ar
   115    47    45   ar
   116   102   101    2
   117    82    81    2
   118   110   111    2
   119   110   109    1
   120   103   104    1
   121   103   100    1
   122    48    46   ar
   123   115   114    1
   124    99   100    1
   125    99    92   am
   126   101   100    1
   127   101   108   am
   128    45    43   ar
   129    91    92    1
   130    91    94    1
   131    91    90    1
   132   109   108    1
   133   109   112    1
   134   114   113    1
   135    92    93    2
   136    95    94    1
   137    95    96    1
   138    46    44   ar
   139    43    44   ar
   140    43    42    1
   141   112   113    1
   142    38    39    1
   143    96    98   ar
   144    96    97   ar
   145    42    39    1
   146    39    40    1
   147    40    41    2
