@<TRIPOS>MOLECULE
tmp/1t73A00.pdb
 135 126 0 0 0
SMALL
GASTEIGER

@<TRIPOS>ATOM
      1  N          5.8050  -26.5050   41.8090 N.3    41  GLU41      -0.1245
      2  CA         6.8610  -25.8860   42.6050 C.3    41  GLU41       0.1567
      3  C          6.5890  -24.3820   42.7330 C.2    41  GLU41       0.2260
      4  O          6.6610  -23.8220   43.8240 O.2    41  GLU41      -0.2867
      5  CB         8.2180  -26.1050   41.9270 C.3    41  GLU41       0.0388
      6  CG         9.4370  -25.7110   42.7570 C.3    41  GLU41       0.1160
      7  CD         9.8160  -26.7720   43.7710 C.2    41  GLU41       0.3649
      8  OE1       10.8620  -26.6080   44.4360 O.co2  41  GLU41      -0.2457
      9  OE2        9.0710  -27.7720   43.9000 O.co2  41  GLU41      -0.2457
     10  N          3.3750  -23.6870   44.7810 N.3    44  LEU44      -0.1231
     11  CA         3.5780  -23.9760   46.1890 C.3    44  LEU44       0.1693
     12  C          4.1030  -22.7350   46.9180 C.2    44  LEU44       0.2591
     13  O          3.6790  -22.4330   48.0450 O.2    44  LEU44      -0.2718
     14  CB         4.5410  -25.1540   46.3540 C.3    44  LEU44       0.0284
     15  CG         4.7370  -25.6220   47.7950 C.3    44  LEU44       0.0019
     16  CD1        3.3780  -25.9480   48.4170 C.3    44  LEU44       0.0001
     17  CD2        5.6450  -26.8430   47.8160 C.3    44  LEU44       0.0001
     18  N          5.0190  -22.0190   46.2700 N.am   45  VAL45      -0.1980
     19  CA         5.5850  -20.7970   46.8430 C.3    45  VAL45       0.1595
     20  C          4.4500  -19.8220   47.1460 C.2    45  VAL45       0.2287
     21  O          4.4000  -19.2390   48.2210 O.2    45  VAL45      -0.2864
     22  CB         6.5850  -20.1220   45.8640 C.3    45  VAL45       0.0276
     23  CG1        7.0100  -18.7480   46.4030 C.3    45  VAL45       0.0022
     24  CG2        7.8130  -21.0140   45.6770 C.3    45  VAL45       0.0022
     25  N          2.2160  -21.0680   50.0960 N.3    48  VAL48      -0.1231
     26  CA         2.8480  -20.8220   51.3960 C.3    48  VAL48       0.1692
     27  C          2.6270  -19.3570   51.8150 C.2    48  VAL48       0.2591
     28  O          2.2450  -19.0720   52.9460 O.2    48  VAL48      -0.2718
     29  CB         4.3830  -21.1160   51.3420 C.3    48  VAL48       0.0266
     30  CG1        5.0680  -20.6560   52.6300 C.3    48  VAL48       0.0020
     31  CG2        4.6180  -22.6060   51.1360 C.3    48  VAL48       0.0020
     32  N          2.8620  -18.4310   50.8950 N.am   49  LYS49      -0.1980
     33  CA         2.6850  -17.0070   51.1850 C.3    49  LYS49       0.1596
     34  C          1.2290  -16.6460   51.4780 C.2    49  LYS49       0.2287
     35  O          0.9540  -15.8260   52.3400 O.2    49  LYS49      -0.2864
     36  CB         3.1900  -16.1810   50.0100 C.3    49  LYS49       0.0298
     37  CG         4.6890  -16.2500   49.8100 C.3    49  LYS49       0.0038
     38  CD         5.0600  -15.8000   48.4040 C.3    49  LYS49       0.0206
     39  CE         4.5060  -14.4180   48.0830 C.3    49  LYS49       0.1093
     40  NZ         4.6230  -14.1170   46.6260 N.3    49  LYS49      -0.1314
     41  N          0.1240  -18.2930   55.1260 N.3    52  LYS52      -0.1245
     42  CA         0.7100  -17.5480   56.2280 C.3    52  LYS52       0.1561
     43  C         -0.0240  -16.2340   56.4520 C.2    52  LYS52       0.2260
     44  O          0.0120  -15.6820   57.5470 O.2    52  LYS52      -0.2867
     45  CB         2.1950  -17.2830   55.9570 C.3    52  LYS52       0.0271
     46  CG         3.0340  -18.5470   55.9570 C.3    52  LYS52       0.0035
     47  CD         4.4510  -18.2960   55.5020 C.3    52  LYS52       0.0206
     48  CE         5.2920  -17.6840   56.5960 C.3    52  LYS52       0.1093
     49  NZ         6.6610  -17.3960   56.0940 N.3    52  LYS52      -0.1314
     50  N         -4.1600  -17.9770   60.8950 N.3    57  PHE57      -0.1241
     51  CA        -3.2050  -19.0150   60.5410 C.3    57  PHE57       0.1605
     52  C         -2.0010  -19.1130   61.4760 C.2    57  PHE57       0.2264
     53  O         -1.5640  -20.2150   61.8150 O.2    57  PHE57      -0.2867
     54  CB        -2.6980  -18.8280   59.1170 C.3    57  PHE57       0.0534
     55  CG        -1.9140  -20.0060   58.6080 C.ar   57  PHE57      -0.0203
     56  CD1       -2.5650  -21.1720   58.2270 C.ar   57  PHE57      -0.0042
     57  CD2       -0.5280  -19.9650   58.5500 C.ar   57  PHE57      -0.0042
     58  CE1       -1.8450  -22.2790   57.7950 C.ar   57  PHE57      -0.0003
     59  CE2        0.2020  -21.0660   58.1170 C.ar   57  PHE57      -0.0003
     60  CZ        -0.4580  -22.2270   57.7380 C.ar   57  PHE57      -0.0000
     61  N          3.8910  -23.8610   64.6380 N.3    62  VAL62      -0.1245
     62  CA         4.6620  -23.7900   63.4030 C.3    62  VAL62       0.1561
     63  C          4.7170  -25.1270   62.6650 C.2    62  VAL62       0.2260
     64  O          4.6160  -25.1660   61.4380 O.2    62  VAL62      -0.2867
     65  CB         6.1110  -23.3030   63.6540 C.3    62  VAL62       0.0252
     66  CG1        6.8190  -24.2270   64.6380 C.3    62  VAL62       0.0019
     67  CG2        6.8750  -23.2650   62.3360 C.3    62  VAL62       0.0019
     68  N          1.4480  -25.6250   60.8710 N.3    65  GLN65      -0.1231
     69  CA         1.3030  -24.7090   59.7440 C.3    65  GLN65       0.1698
     70  C          1.9050  -25.3840   58.5100 C.2    65  GLN65       0.2592
     71  O          1.2980  -25.4010   57.4350 O.2    65  GLN65      -0.2718
     72  CB         2.0540  -23.4040   60.0130 C.3    65  GLN65       0.0381
     73  CG         1.4130  -22.4860   61.0440 C.3    65  GLN65       0.0905
     74  CD         2.2380  -21.2340   61.2670 C.2    65  GLN65       0.2608
     75  OE1        2.7970  -20.6860   60.3290 O.2    65  GLN65      -0.2717
     76  NE2        2.3100  -20.7750   62.5080 N.am   65  GLN65      -0.0878
     77  N          3.1060  -25.9350   58.6780 N.am   66  MET66      -0.1979
     78  CA         3.7970  -26.6240   57.5970 C.3    66  MET66       0.1605
     79  C          3.0550  -27.8990   57.1940 C.2    66  MET66       0.2287
     80  O          2.9480  -28.2170   56.0150 O.2    66  MET66      -0.2864
     81  CB         5.2240  -26.9830   58.0200 C.3    66  MET66       0.0413
     82  CG         6.1220  -25.7830   58.2750 C.3    66  MET66       0.0598
     83  SD         7.8520  -26.2350   58.5380 S.3    66  MET66      -0.1393
     84  CE         7.7800  -27.0310   60.1560 C.3    66  MET66       0.0692
     85  N         -0.2350  -27.4140   55.0320 N.3    69  ILE69      -0.1231
     86  CA         0.1190  -27.0170   53.6730 C.3    69  ILE69       0.1692
     87  C          0.6760  -28.2140   52.8980 C.2    69  ILE69       0.2591
     88  O          0.3530  -28.4170   51.7350 O.2    69  ILE69      -0.2718
     89  CB         1.1840  -25.8970   53.6700 C.3    69  ILE69       0.0266
     90  CG1        0.6070  -24.6130   54.2570 C.3    69  ILE69       0.0019
     91  CG2        1.6590  -25.6380   52.2480 C.3    69  ILE69       0.0020
     92  CD1        1.6620  -23.4980   54.4350 C.3    69  ILE69       0.0001
     93  N          1.5230  -28.9990   53.5560 N.am   70  GLN70      -0.1979
     94  CA         2.1200  -30.1680   52.9340 C.3    70  GLN70       0.1601
     95  C          1.0860  -31.2330   52.5750 C.2    70  GLN70       0.2287
     96  O          1.2680  -31.9600   51.6070 O.2    70  GLN70      -0.2864
     97  CB         3.1780  -30.7670   53.8640 C.3    70  GLN70       0.0394
     98  CG         4.5070  -30.0440   53.8280 C.3    70  GLN70       0.0908
     99  CD         5.4020  -30.3960   55.0020 C.2    70  GLN70       0.2608
    100  OE1        6.6090  -30.2250   54.9370 O.2    70  GLN70      -0.2717
    101  NE2        4.8060  -30.8770   56.0840 N.am   70  GLN70      -0.0878
    102  N         12.8820  -29.6230   43.6420 N.3   225  GLU225     -0.1231
    103  CA        13.2800  -29.8540   45.0290 C.3   225  GLU225      0.1699
    104  C         12.1590  -30.0910   46.0430 C.2   225  GLU225      0.2592
    105  O         12.0680  -31.1690   46.6390 O.2   225  GLU225     -0.2718
    106  CB        14.1430  -28.6780   45.5020 C.3   225  GLU225      0.0402
    107  CG        14.6390  -28.7990   46.9300 C.3   225  GLU225      0.1161
    108  CD        15.2210  -27.4970   47.4580 C.2   225  GLU225      0.3649
    109  OE1       15.4460  -27.3980   48.6860 O.co2 225  GLU225     -0.2457
    110  OE2       15.4510  -26.5760   46.6460 O.co2 225  GLU225     -0.2457
    111  N         11.3210  -29.0780   46.2510 N.am  226  MET226     -0.1979
    112  CA        10.2250  -29.1640   47.2130 C.3   226  MET226      0.1605
    113  C          9.1740  -30.2120   46.8620 C.2   226  MET226      0.2287
    114  O          8.5840  -30.8230   47.7520 O.2   226  MET226     -0.2864
    115  CB         9.5520  -27.8000   47.3700 C.3   226  MET226      0.0413
    116  CG        10.4940  -26.7040   47.8480 C.3   226  MET226      0.0598
    117  SD         9.6130  -25.2130   48.3670 S.3   226  MET226     -0.1393
    118  CE         9.2630  -24.4550   46.7770 C.3   226  MET226      0.0692
    119  N         10.6230  -33.8140   47.7010 N.3   229  GLU229     -0.1231
    120  CA        10.6440  -34.0180   49.1440 C.3   229  GLU229      0.1699
    121  C          9.2610  -34.2840   49.7270 C.2   229  GLU229      0.2592
    122  O          9.0580  -35.2600   50.4490 O.2   229  GLU229     -0.2718
    123  CB        11.2590  -32.7970   49.8360 C.3   229  GLU229      0.0402
    124  CG        11.0880  -32.8040   51.3400 C.3   229  GLU229      0.1161
    125  CD        11.5400  -31.5100   51.9820 C.2   229  GLU229      0.3649
    126  OE1       12.7670  -31.3010   52.0950 O.co2 229  GLU229     -0.2457
    127  OE2       10.6670  -30.6980   52.3640 O.co2 229  GLU229     -0.2457
    128  N          8.3130  -33.4090   49.4160 N.am  230  ILE230     -0.1980
    129  CA         6.9580  -33.5500   49.9290 C.3   230  ILE230      0.1595
    130  C          6.2850  -34.8310   49.4630 C.2   230  ILE230      0.2287
    131  O          5.6100  -35.5070   50.2370 O.2   230  ILE230     -0.2864
    132  CB         6.0700  -32.3400   49.5110 C.3   230  ILE230      0.0276
    133  CG1        6.4630  -31.1000   50.3210 C.3   230  ILE230      0.0022
    134  CG2        4.6000  -32.6530   49.7430 C.3   230  ILE230      0.0022
    135  CD1        5.6430  -29.8570   49.9890 C.3   230  ILE230      0.0001
@<TRIPOS>BOND
     1     1     2    1
     2     5     2    1
     3     5     6    1
     4     2     3    1
     5     3     4    2
     6     6     7    1
     7   102   103    1
     8     7     9   ar
     9     7     8   ar
    10    10    11    1
    11   103   106    1
    12   103   104    1
    13   106   107    1
    14    24    22    1
    15    22    23    1
    16    22    19    1
    17   104   111   am
    18   104   105    2
    19    11    14    1
    20    11    12    1
    21   111   112    1
    22    18    19    1
    23    18    12   am
    24    14    15    1
    25    40    39    1
    26   110   108   ar
    27   118   117    1
    28    19    20    1
    29   113   112    1
    30   113   114    2
    31    12    13    2
    32   107   108    1
    33    20    21    2
    34   112   115    1
    35   115   116    1
    36   108   109   ar
    37   119   120    1
    38    15    17    1
    39    15    16    1
    40   116   117    1
    41    39    38    1
    42    38    37    1
    43   120   121    1
    44   120   123    1
    45   128   121   am
    46   128   129    1
    47   130   129    1
    48   130   131    2
    49   132   134    1
    50   132   129    1
    51   132   133    1
    52   121   122    2
    53    37    36    1
    54   123   124    1
    55   135   133    1
    56    36    33    1
    57    25    26    1
    58    32    33    1
    59    32    27   am
    60    31    29    1
    61    33    34    1
    62   124   125    1
    63    29    26    1
    64    29    30    1
    65    26    27    1
    66    34    35    2
    67    96    95    2
    68    88    87    2
    69    27    28    2
    70   125   126   ar
    71   125   127   ar
    72    91    89    1
    73    95    94    1
    74    87    93   am
    75    87    86    1
    76    94    93    1
    77    94    97    1
    78    89    86    1
    79    89    90    1
    80    86    85    1
    81    98    97    1
    82    98    99    1
    83    90    92    1
    84   100    99    2
    85    99   101   am
    86    41    42    1
    87    47    46    1
    88    47    48    1
    89    46    45    1
    90    45    42    1
    91    80    79    2
    92    49    48    1
    93    42    43    1
    94    43    44    2
    95    79    78    1
    96    71    70    2
    97    78    81    1
    98    78    77    1
    99    60    58   ar
   100    60    59   ar
   101    58    56   ar
   102    81    82    1
   103    59    57   ar
   104    56    55   ar
   105    82    83    1
   106    70    77   am
   107    70    69    1
   108    83    84    1
   109    57    55   ar
   110    55    54    1
   111    54    51    1
   112    69    72    1
   113    69    68    1
   114    72    73    1
   115    75    74    2
   116    51    50    1
   117    51    52    1
   118    73    74    1
   119    74    76   am
   120    64    63    2
   121    52    53    2
   122    67    65    1
   123    63    62    1
   124    62    65    1
   125    62    61    1
   126    65    66    1
