@<TRIPOS>MOLECULE
tmp/1t74A00.pdb
 144 134 0 0 0
SMALL
GASTEIGER

@<TRIPOS>ATOM
      1  N         34.5280  -28.4390   38.6200 N.3    37  GLU37      -0.1245
      2  CA        35.1070  -27.1130   38.8360 C.3    37  GLU37       0.1567
      3  C         34.0300  -26.1490   39.3180 C.2    37  GLU37       0.2260
      4  O         34.2680  -25.3320   40.2040 O.2    37  GLU37      -0.2867
      5  CB        35.7370  -26.5870   37.5460 C.3    37  GLU37       0.0388
      6  CG        36.3190  -25.1700   37.6340 C.3    37  GLU37       0.1160
      7  CD        37.3680  -25.0160   38.7340 C.2    37  GLU37       0.3649
      8  OE1       38.0610  -26.0060   39.0490 O.co2  37  GLU37      -0.2457
      9  OE2       37.5070  -23.8990   39.2720 O.co2  37  GLU37      -0.2457
     10  N         33.4930  -26.6950   42.9180 N.3    40  GLU40      -0.1231
     11  CA        34.5840  -26.1290   43.7090 C.3    40  GLU40       0.1699
     12  C         34.3460  -24.6270   43.8680 C.2    40  GLU40       0.2592
     13  O         34.4630  -24.0780   44.9610 O.2    40  GLU40      -0.2718
     14  CB        35.9310  -26.3780   43.0090 C.3    40  GLU40       0.0402
     15  CG        37.1700  -25.9080   43.7930 C.3    40  GLU40       0.1161
     16  CD        37.6530  -26.9330   44.8120 C.2    40  GLU40       0.3649
     17  OE1       38.7240  -26.7190   45.4300 O.co2  40  GLU40      -0.2457
     18  OE2       36.9650  -27.9610   44.9930 O.co2  40  GLU40      -0.2457
     19  N         33.9890  -23.9690   42.7720 N.am   41  ARG41      -0.1980
     20  CA        33.7360  -22.5370   42.8020 C.3    41  ARG41       0.1597
     21  C         32.5190  -22.1670   43.6490 C.2    41  ARG41       0.2287
     22  O         32.5640  -21.2170   44.4310 O.2    41  ARG41      -0.2864
     23  CB        33.5680  -22.0140   41.3770 C.3    41  ARG41       0.0334
     24  CG        34.8250  -22.1930   40.5380 C.3    41  ARG41       0.0492
     25  CD        34.6560  -21.5880   39.1700 C.3    41  ARG41       0.2205
     26  NE        35.8510  -21.7450   38.3480 N.pl3  41  ARG41      -0.0865
     27  CZ        35.9970  -21.1860   37.1540 C.cat  41  ARG41       0.5346
     28  NH1       35.0160  -20.4340   36.6570 N.pl3  41  ARG41       0.1354
     29  NH2       37.1160  -21.3820   36.4600 N.pl3  41  ARG41       0.1354
     30  N         31.3440  -23.8920   46.0190 N.3    43  LEU43      -0.1231
     31  CA        31.6360  -24.2380   47.4010 C.3    43  LEU43       0.1693
     32  C         32.1230  -22.9850   48.1320 C.2    43  LEU43       0.2591
     33  O         31.7390  -22.7260   49.2660 O.2    43  LEU43      -0.2718
     34  CB        32.7070  -25.3320   47.4530 C.3    43  LEU43       0.0284
     35  CG        32.7710  -26.1460   48.7470 C.3    43  LEU43       0.0019
     36  CD1       31.4050  -26.7900   49.0160 C.3    43  LEU43       0.0001
     37  CD2       33.8550  -27.2230   48.6310 C.3    43  LEU43       0.0001
     38  N         32.9660  -22.2010   47.4660 N.am   44  VAL44      -0.1980
     39  CA        33.4920  -20.9740   48.0680 C.3    44  VAL44       0.1595
     40  C         32.3600  -20.0180   48.4530 C.2    44  VAL44       0.2287
     41  O         32.3570  -19.4550   49.5420 O.2    44  VAL44      -0.2864
     42  CB        34.4590  -20.2620   47.1050 C.3    44  VAL44       0.0276
     43  CG1       34.8090  -18.8820   47.6440 C.3    44  VAL44       0.0022
     44  CG2       35.7330  -21.1050   46.9320 C.3    44  VAL44       0.0022
     45  N         30.2030  -21.3320   51.4610 N.3    47  VAL47      -0.1231
     46  CA        30.8290  -21.1030   52.7570 C.3    47  VAL47       0.1692
     47  C         30.6530  -19.6500   53.2240 C.2    47  VAL47       0.2591
     48  O         30.2960  -19.4050   54.3760 O.2    47  VAL47      -0.2718
     49  CB        32.3450  -21.4440   52.7370 C.3    47  VAL47       0.0266
     50  CG1       33.0130  -20.8560   53.9550 C.3    47  VAL47       0.0020
     51  CG2       32.5470  -22.9560   52.7540 C.3    47  VAL47       0.0020
     52  N         30.9090  -18.6900   52.3430 N.am   48  LYS48      -0.1980
     53  CA        30.7670  -17.2800   52.7120 C.3    48  LYS48       0.1596
     54  C         29.3090  -16.9310   53.0090 C.2    48  LYS48       0.2287
     55  O         29.0110  -16.1570   53.9270 O.2    48  LYS48      -0.2864
     56  CB        31.3110  -16.3910   51.5920 C.3    48  LYS48       0.0298
     57  CG        32.8230  -16.4840   51.4270 C.3    48  LYS48       0.0038
     58  CD        33.2970  -15.7470   50.1830 C.3    48  LYS48       0.0206
     59  CE        34.8140  -15.7890   50.0660 C.3    48  LYS48       0.1093
     60  NZ        35.2960  -15.1500   48.8030 N.3    48  LYS48      -0.1314
     61  N         28.2320  -18.5380   56.5760 N.3    51  LYS51      -0.1245
     62  CA        28.8130  -17.8170   57.7030 C.3    51  LYS51       0.1561
     63  C         28.1160  -16.4870   57.9790 C.2    51  LYS51       0.2260
     64  O         28.1560  -15.9840   59.0990 O.2    51  LYS51      -0.2867
     65  CB        30.3050  -17.5710   57.4620 C.3    51  LYS51       0.0271
     66  CG        31.2090  -18.7470   57.7860 C.3    51  LYS51       0.0035
     67  CD        32.6300  -18.4690   57.3180 C.3    51  LYS51       0.0206
     68  CE        33.6330  -19.4820   57.8750 C.3    51  LYS51       0.1093
     69  NZ        34.2840  -19.0120   59.1360 N.3    51  LYS51      -0.1314
     70  N         32.4420  -24.1760   65.7490 N.3    61  VAL61      -0.1245
     71  CA        33.1960  -24.1320   64.5030 C.3    61  VAL61       0.1561
     72  C         33.2370  -25.4610   63.7500 C.2    61  VAL61       0.2260
     73  O         33.1850  -25.4830   62.5150 O.2    61  VAL61      -0.2867
     74  CB        34.6450  -23.6600   64.7530 C.3    61  VAL61       0.0252
     75  CG1       35.3800  -24.6650   65.6420 C.3    61  VAL61       0.0019
     76  CG2       35.3660  -23.4740   63.4270 C.3    61  VAL61       0.0019
     77  N         29.8630  -26.0640   62.2520 N.3    64  GLN64      -0.1231
     78  CA        29.7080  -25.1590   61.1260 C.3    64  GLN64       0.1698
     79  C         30.2770  -25.8360   59.8800 C.2    64  GLN64       0.2592
     80  O         29.6330  -25.8490   58.8320 O.2    64  GLN64      -0.2718
     81  CB        30.4440  -23.8380   61.3890 C.3    64  GLN64       0.0381
     82  CG        29.7570  -22.8710   62.3360 C.3    64  GLN64       0.0905
     83  CD        30.5940  -21.6150   62.5450 C.2    64  GLN64       0.2608
     84  OE1       31.1900  -21.0970   61.6020 O.2    64  GLN64      -0.2717
     85  NE2       30.6310  -21.1170   63.7710 N.am   64  GLN64      -0.0878
     86  N         31.4790  -26.4010   60.0000 N.am   65  MET65      -0.1979
     87  CA        32.1010  -27.0820   58.8720 C.3    65  MET65       0.1605
     88  C         31.3180  -28.3250   58.4880 C.2    65  MET65       0.2287
     89  O         31.1890  -28.6520   57.3100 O.2    65  MET65      -0.2864
     90  CB        33.5390  -27.4990   59.2020 C.3    65  MET65       0.0413
     91  CG        34.5780  -26.3970   59.0460 C.3    65  MET65       0.0598
     92  SD        36.2560  -26.9410   59.5040 S.3    65  MET65      -0.1393
     93  CE        36.5120  -28.2310   58.3480 C.3    65  MET65       0.0692
     94  N         27.8890  -27.6900   56.4980 N.3    68  ILE68      -0.1231
     95  CA        28.1930  -27.2270   55.1510 C.3    68  ILE68       0.1692
     96  C         28.6890  -28.4050   54.3060 C.2    68  ILE68       0.2591
     97  O         28.2980  -28.5650   53.1440 O.2    68  ILE68      -0.2718
     98  CB        29.2710  -26.1180   55.1700 C.3    68  ILE68       0.0266
     99  CG1       28.7020  -24.8410   55.7950 C.3    68  ILE68       0.0019
    100  CG2       29.7660  -25.8570   53.7640 C.3    68  ILE68       0.0020
    101  CD1       29.7270  -23.7640   56.0400 C.3    68  ILE68       0.0001
    102  N         29.5440  -29.2370   54.8930 N.am   69  GLN69      -0.1979
    103  CA        30.0950  -30.3900   54.1920 C.3    69  GLN69       0.1601
    104  C         29.0480  -31.4430   53.8220 C.2    69  GLN69       0.2287
    105  O         29.2050  -32.1570   52.8360 O.2    69  GLN69      -0.2864
    106  CB        31.1960  -31.0360   55.0410 C.3    69  GLN69       0.0394
    107  CG        32.5430  -30.3280   54.9380 C.3    69  GLN69       0.0908
    108  CD        33.5250  -30.7550   56.0260 C.2    69  GLN69       0.2608
    109  OE1       34.7390  -30.6220   55.8660 O.2    69  GLN69      -0.2717
    110  NE2       33.0010  -31.2490   57.1420 N.am   69  GLN69      -0.0878
    111  N         40.5500  -29.8900   44.4130 N.3   224  GLU224     -0.1231
    112  CA        40.9750  -30.2130   45.7740 C.3   224  GLU224      0.1699
    113  C         39.8790  -30.3490   46.8460 C.2   224  GLU224      0.2592
    114  O         39.7260  -31.4070   47.4550 O.2   224  GLU224     -0.2718
    115  CB        42.0010  -29.1800   46.2470 C.3   224  GLU224      0.0402
    116  CG        42.6940  -29.5560   47.5470 C.3   224  GLU224      0.1161
    117  CD        43.3340  -28.3640   48.2310 C.2   224  GLU224      0.3649
    118  OE1       43.9180  -27.5140   47.5270 O.co2 224  GLU224     -0.2457
    119  OE2       43.2600  -28.2810   49.4750 O.co2 224  GLU224     -0.2457
    120  N         39.1340  -29.2790   47.0920 N.am  225  MET225     -0.1979
    121  CA        38.0960  -29.3240   48.1160 C.3   225  MET225      0.1605
    122  C         37.0380  -30.3780   47.8150 C.2   225  MET225      0.2287
    123  O         36.6140  -31.1020   48.7110 O.2   225  MET225     -0.2864
    124  CB        37.4460  -27.9470   48.2870 C.3   225  MET225      0.0413
    125  CG        38.4250  -26.8690   48.7270 C.3   225  MET225      0.0598
    126  SD        37.6260  -25.3550   49.2880 S.3   225  MET225     -0.1393
    127  CE        37.0230  -24.6970   47.7130 C.3   225  MET225      0.0692
    128  N         38.3830  -33.8700   48.5870 N.3   228  GLU228     -0.1231
    129  CA        38.4900  -34.0980   50.0210 C.3   228  GLU228      0.1699
    130  C         37.1190  -34.3750   50.6390 C.2   228  GLU228      0.2592
    131  O         36.9330  -35.3570   51.3560 O.2   228  GLU228     -0.2718
    132  CB        39.1310  -32.8830   50.6970 C.3   228  GLU228      0.0402
    133  CG        39.4850  -33.0900   52.1690 C.3   228  GLU228      0.1161
    134  CD        39.9240  -31.7980   52.8550 C.2   228  GLU228      0.3649
    135  OE1       40.8180  -31.1010   52.3210 O.co2 228  GLU228     -0.2457
    136  OE2       39.3760  -31.4810   53.9330 O.co2 228  GLU228     -0.2457
    137  N         36.1520  -33.5170   50.3510 N.am  229  ILE229     -0.1980
    138  CA        34.8140  -33.7000   50.9020 C.3   229  ILE229      0.1595
    139  C         34.1260  -34.9750   50.3940 C.2   229  ILE229      0.2287
    140  O         33.4380  -35.6610   51.1520 O.2   229  ILE229     -0.2864
    141  CB        33.9290  -32.4630   50.5960 C.3   229  ILE229      0.0276
    142  CG1       34.4500  -31.2620   51.3880 C.3   229  ILE229      0.0022
    143  CG2       32.4700  -32.7440   50.9540 C.3   229  ILE229      0.0022
    144  CD1       33.8470  -29.9320   50.9790 C.3   229  ILE229      0.0001
@<TRIPOS>BOND
     1    29    27    1
     2    28    27    1
     3    27    26    2
     4     5     6    1
     5     5     2    1
     6     6     7    1
     7    26    25    1
     8     1     2    1
     9     7     8   ar
    10     7     9   ar
    11     2     3    1
    12    25    24    1
    13     3     4    2
    14    24    23    1
    15    23    20    1
    16    19    20    1
    17    19    12   am
    18    20    21    1
    19    10    11    1
    20    14    11    1
    21    14    15    1
    22    21    22    2
    23    11    12    1
    24    15    16    1
    25    12    13    2
    26   111   112    1
    27    16    18   ar
    28    16    17   ar
    29   112   115    1
    30   112   113    1
    31    30    31    1
    32   115   116    1
    33   113   120   am
    34   113   114    2
    35    44    42    1
    36   120   121    1
    37    42    43    1
    38    42    39    1
    39    31    34    1
    40    31    32    1
    41    34    35    1
    42    38    39    1
    43    38    32   am
    44   118   117   ar
    45   116   117    1
    46   127   126    1
    47   122   121    1
    48   122   123    2
    49    39    40    1
    50   121   124    1
    51    32    33    2
    52   117   119   ar
    53   124   125    1
    54    40    41    2
    55   128   129    1
    56    37    35    1
    57   125   126    1
    58    35    36    1
    59    60    59    1
    60   129   130    1
    61   129   132    1
    62    59    58    1
    63    58    57    1
    64   137   130   am
    65   137   138    1
    66   139   138    1
    67   139   140    2
    68   141   138    1
    69   141   143    1
    70   141   142    1
    71   130   131    2
    72   132   133    1
    73   144   142    1
    74    57    56    1
    75    45    46    1
    76    56    53    1
    77   133   134    1
    78   135   134   ar
    79    52    53    1
    80    52    47   am
    81    53    54    1
    82    49    51    1
    83    49    46    1
    84    49    50    1
    85    46    47    1
    86   105   104    2
    87   134   136   ar
    88    54    55    2
    89    97    96    2
    90    47    48    2
    91   100    98    1
    92   104   103    1
    93   103   102    1
    94   103   106    1
    95    96   102   am
    96    96    95    1
    97   107   106    1
    98   107   108    1
    99    95    98    1
   100    95    94    1
   101    98    99    1
   102    99   101    1
   103   109   108    2
   104   108   110   am
   105    61    62    1
   106    89    88    2
   107    67    66    1
   108    67    68    1
   109    65    62    1
   110    65    66    1
   111    62    63    1
   112    68    69    1
   113    63    64    2
   114    93    92    1
   115    88    87    1
   116    80    79    2
   117    87    90    1
   118    87    86    1
   119    91    90    1
   120    91    92    1
   121    79    86   am
   122    79    78    1
   123    78    81    1
   124    78    77    1
   125    81    82    1
   126    84    83    2
   127    82    83    1
   128    73    72    2
   129    83    85   am
   130    76    74    1
   131    72    71    1
   132    71    74    1
   133    71    70    1
   134    74    75    1
