@<TRIPOS>MOLECULE
tmp/1t76A00.pdb
 142 134 0 0 0
SMALL
GASTEIGER

@<TRIPOS>ATOM
      1  N          5.8860  -26.6160   42.0940 N.3    40  GLU40      -0.1245
      2  CA         6.9460  -26.0160   42.8950 C.3    40  GLU40       0.1567
      3  C          6.6900  -24.5130   43.0200 C.2    40  GLU40       0.2260
      4  O          6.7940  -23.9420   44.1040 O.2    40  GLU40      -0.2867
      5  CB         8.3030  -26.2580   42.2230 C.3    40  GLU40       0.0388
      6  CG         9.5080  -25.8780   43.0650 C.3    40  GLU40       0.1160
      7  CD         9.8480  -26.9230   44.1110 C.2    40  GLU40       0.3649
      8  OE1       10.8760  -26.7530   44.8050 O.co2  40  GLU40      -0.2457
      9  OE2        9.0940  -27.9130   44.2400 O.co2  40  GLU40      -0.2457
     10  N          3.5190  -23.8120   45.0650 N.3    43  LEU43      -0.1231
     11  CA         3.7240  -24.1530   46.4660 C.3    43  LEU43       0.1693
     12  C          4.2470  -22.9230   47.2120 C.2    43  LEU43       0.2591
     13  O          3.8180  -22.6280   48.3290 O.2    43  LEU43      -0.2718
     14  CB         4.7050  -25.3220   46.5810 C.3    43  LEU43       0.0284
     15  CG         4.7440  -26.1040   47.8960 C.3    43  LEU43       0.0019
     16  CD1        3.3400  -26.4850   48.3400 C.3    43  LEU43       0.0001
     17  CD2        5.5880  -27.3510   47.7010 C.3    43  LEU43       0.0001
     18  N          5.1700  -22.2020   46.5800 N.am   44  VAL44      -0.1980
     19  CA         5.7330  -20.9820   47.1620 C.3    44  VAL44       0.1595
     20  C          4.6060  -19.9950   47.4460 C.2    44  VAL44       0.2287
     21  O          4.5680  -19.3700   48.5030 O.2    44  VAL44      -0.2864
     22  CB         6.7280  -20.3020   46.1940 C.3    44  VAL44       0.0276
     23  CG1        7.2190  -18.9880   46.7870 C.3    44  VAL44       0.0022
     24  CG2        7.8930  -21.2260   45.9140 C.3    44  VAL44       0.0022
     25  N          2.3920  -21.1580   50.3570 N.3    47  VAL47      -0.1231
     26  CA         3.0680  -20.9380   51.6320 C.3    47  VAL47       0.1692
     27  C          2.8700  -19.4900   52.0990 C.2    47  VAL47       0.2591
     28  O          2.5260  -19.2450   53.2530 O.2    47  VAL47      -0.2718
     29  CB         4.5940  -21.2180   51.5250 C.3    47  VAL47       0.0266
     30  CG1        5.3150  -20.6440   52.7350 C.3    47  VAL47       0.0020
     31  CG2        4.8500  -22.7150   51.4430 C.3    47  VAL47       0.0020
     32  N          3.0880  -18.5330   51.1990 N.am   48  LYS48      -0.1980
     33  CA         2.9340  -17.1230   51.5520 C.3    48  LYS48       0.1596
     34  C          1.4730  -16.7630   51.7610 C.2    48  LYS48       0.2287
     35  O          1.1560  -15.9130   52.5780 O.2    48  LYS48      -0.2864
     36  CB         3.5540  -16.2250   50.4680 C.3    48  LYS48       0.0298
     37  CG         5.0450  -16.4720   50.2670 C.3    48  LYS48       0.0038
     38  CD         5.6920  -15.4460   49.3480 C.3    48  LYS48       0.0206
     39  CE         5.0840  -15.4650   47.9550 C.3    48  LYS48       0.1093
     40  NZ         5.6970  -14.4220   47.0860 N.3    48  LYS48      -0.1314
     41  N          0.3050  -18.3550   55.2620 N.3    51  LYS51      -0.1245
     42  CA         0.8770  -17.5720   56.3560 C.3    51  LYS51       0.1561
     43  C          0.1200  -16.2610   56.6130 C.2    51  LYS51       0.2260
     44  O          0.1530  -15.7290   57.7160 O.2    51  LYS51      -0.2867
     45  CB         2.3470  -17.2610   56.0620 C.3    51  LYS51       0.0271
     46  CG         3.3410  -18.2780   56.5970 C.3    51  LYS51       0.0035
     47  CD         4.7150  -18.0240   55.9900 C.3    51  LYS51       0.0206
     48  CE         5.8370  -18.7240   56.7550 C.3    51  LYS51       0.1093
     49  NZ         6.1280  -18.0520   58.0560 N.3    51  LYS51      -0.1314
     50  N         -3.8880  -17.9850   61.2220 N.3    56  PHE56      -0.1241
     51  CA        -2.9620  -19.0650   60.8780 C.3    56  PHE56       0.1605
     52  C         -1.7680  -19.1560   61.8370 C.2    56  PHE56       0.2264
     53  O         -1.2420  -20.2470   62.1000 O.2    56  PHE56      -0.2867
     54  CB        -2.4340  -18.8770   59.4550 C.3    56  PHE56       0.0534
     55  CG        -1.6720  -20.0660   58.9280 C.ar   56  PHE56      -0.0203
     56  CD1       -2.3430  -21.2050   58.5050 C.ar   56  PHE56      -0.0042
     57  CD2       -0.2830  -20.0530   58.8790 C.ar   56  PHE56      -0.0042
     58  CE1       -1.6460  -22.3210   58.0390 C.ar   56  PHE56      -0.0003
     59  CE2        0.4290  -21.1660   58.4140 C.ar   56  PHE56      -0.0003
     60  CZ        -0.2560  -22.3000   57.9950 C.ar   56  PHE56      -0.0000
     61  N          4.0480  -23.9160   64.9480 N.3    61  VAL61      -0.1245
     62  CA         4.8790  -23.8860   63.7470 C.3    61  VAL61       0.1561
     63  C          4.8530  -25.1910   62.9620 C.2    61  VAL61       0.2260
     64  O          4.6450  -25.1910   61.7490 O.2    61  VAL61      -0.2867
     65  CB         6.3590  -23.5590   64.0840 C.3    61  VAL61       0.0252
     66  CG1        7.2340  -23.7510   62.8520 C.3    61  VAL61       0.0019
     67  CG2        6.4730  -22.1300   64.5750 C.3    61  VAL61       0.0019
     68  N          1.6510  -25.6880   61.1870 N.3    64  GLN64      -0.1231
     69  CA         1.5360  -24.7490   60.0770 C.3    64  GLN64       0.1698
     70  C          2.0860  -25.4120   58.8240 C.2    64  GLN64       0.2592
     71  O          1.4310  -25.4250   57.7790 O.2    64  GLN64      -0.2718
     72  CB         2.3340  -23.4700   60.3610 C.3    64  GLN64       0.0381
     73  CG         1.7120  -22.5590   61.4030 C.3    64  GLN64       0.0905
     74  CD         2.4950  -21.2730   61.5820 C.2    64  GLN64       0.2608
     75  OE1        3.0760  -20.7570   60.6310 O.2    64  GLN64      -0.2717
     76  NE2        2.4980  -20.7400   62.8000 N.am   64  GLN64      -0.0878
     77  N          3.2930  -25.9590   58.9420 N.am   65  MET65      -0.1979
     78  CA         3.9450  -26.6320   57.8300 C.3    65  MET65       0.1605
     79  C          3.1730  -27.8850   57.4410 C.2    65  MET65       0.2287
     80  O          2.9810  -28.1630   56.2570 O.2    65  MET65      -0.2864
     81  CB         5.3790  -27.0160   58.2080 C.3    65  MET65       0.0413
     82  CG         6.2520  -25.8310   58.6000 C.3    65  MET65       0.0598
     83  SD         8.0100  -26.2560   58.7160 S.3    65  MET65      -0.1393
     84  CE         7.9960  -27.3640   60.1270 C.3    65  MET65       0.0692
     85  N         -0.1130  -27.3840   55.3280 N.3    68  ILE68      -0.1231
     86  CA         0.2420  -26.9630   53.9770 C.3    68  ILE68       0.1692
     87  C          0.7400  -28.1650   53.1770 C.2    68  ILE68       0.2591
     88  O          0.3820  -28.3480   52.0120 O.2    68  ILE68      -0.2718
     89  CB         1.3540  -25.8800   53.9950 C.3    68  ILE68       0.0266
     90  CG1        0.7920  -24.5580   54.5150 C.3    68  ILE68       0.0019
     91  CG2        1.9350  -25.7040   52.6010 C.3    68  ILE68       0.0020
     92  CD1        1.8540  -23.4870   54.7660 C.3    68  ILE68       0.0001
     93  N          1.5690  -28.9850   53.8150 N.am   69  GLN69      -0.1979
     94  CA         2.1320  -30.1590   53.1700 C.3    69  GLN69       0.1601
     95  C          1.1140  -31.2640   52.8580 C.2    69  GLN69       0.2287
     96  O          1.3110  -32.0300   51.9200 O.2    69  GLN69      -0.2864
     97  CB         3.2870  -30.6930   54.0240 C.3    69  GLN69       0.0394
     98  CG         4.5370  -29.8230   53.8880 C.3    69  GLN69       0.0908
     99  CD         5.6570  -30.1730   54.8580 C.2    69  GLN69       0.2608
    100  OE1        6.7780  -29.6900   54.7130 O.2    69  GLN69      -0.2717
    101  NE2        5.3590  -30.9960   55.8500 N.am   69  GLN69      -0.0878
    102  N         10.9490  -31.1220   41.0470 N.3   223  PRO223     -0.2102
    103  CA        11.7060  -30.0870   41.7560 C.3   223  PRO223      0.1504
    104  C         11.9480  -30.5540   43.1880 C.2   223  PRO223      0.2576
    105  O         11.3220  -31.5130   43.6490 O.2   223  PRO223     -0.2718
    106  CB        10.7810  -28.8780   41.6770 C.3   223  PRO223      0.0282
    107  CG        10.1050  -29.0790   40.3600 C.3   223  PRO223      0.0208
    108  CD         9.7550  -30.5450   40.4070 C.3   223  PRO223      0.0893
    109  N         12.8330  -29.8650   43.8990 N.am  224  GLU224     -0.1966
    110  CA        13.1890  -30.2500   45.2610 C.3   224  GLU224      0.1733
    111  C         12.0960  -30.3460   46.3330 C.2   224  GLU224      0.2616
    112  O         12.0070  -31.3580   47.0310 O.2   224  GLU224     -0.2715
    113  CB        14.3220  -29.3490   45.7490 C.3   224  GLU224      0.0429
    114  CG        15.5970  -29.5270   44.9310 C.3   224  GLU224      0.1163
    115  CD        16.7060  -28.5720   45.3450 C.2   224  GLU224      0.3649
    116  OE1       17.0920  -28.5920   46.5350 O.co2 224  GLU224     -0.2457
    117  OE2       17.1860  -27.8050   44.4770 O.co2 224  GLU224     -0.2457
    118  N         11.2760  -29.3140   46.4900 N.am  225  MET225     -0.1977
    119  CA        10.2270  -29.3690   47.5040 C.3   225  MET225      0.1605
    120  C          9.1860  -30.4320   47.1860 C.2   225  MET225      0.2287
    121  O          8.6780  -31.1100   48.0820 O.2   225  MET225     -0.2864
    122  CB         9.5310  -28.0160   47.6450 C.3   225  MET225      0.0413
    123  CG        10.3760  -26.9490   48.2960 C.3   225  MET225      0.0598
    124  SD         9.3740  -25.5250   48.7470 S.3   225  MET225     -0.1393
    125  CE         8.9800  -24.9080   47.1090 C.3   225  MET225      0.0692
    126  N         10.5050  -33.9110   48.0180 N.3   228  GLU228     -0.1231
    127  CA        10.5220  -34.0880   49.4680 C.3   228  GLU228      0.1699
    128  C          9.1300  -34.3440   50.0500 C.2   228  GLU228      0.2592
    129  O          8.9240  -35.3000   50.8030 O.2   228  GLU228     -0.2718
    130  CB        11.1210  -32.8560   50.1540 C.3   228  GLU228      0.0402
    131  CG        11.1370  -32.9820   51.6750 C.3   228  GLU228      0.1161
    132  CD        11.3400  -31.6530   52.3900 C.2   228  GLU228      0.3649
    133  OE1       12.3690  -30.9860   52.1430 O.co2 228  GLU228     -0.2457
    134  OE2       10.4600  -31.2790   53.2020 O.co2 228  GLU228     -0.2457
    135  N          8.1730  -33.4930   49.7020 N.am  229  ILE229     -0.1980
    136  CA         6.8210  -33.6430   50.2240 C.3   229  ILE229      0.1595
    137  C          6.1330  -34.9150   49.7250 C.2   229  ILE229      0.2287
    138  O          5.3980  -35.5670   50.4700 O.2   229  ILE229     -0.2864
    139  CB         5.9490  -32.4040   49.8670 C.3   229  ILE229      0.0276
    140  CG1        6.4230  -31.1920   50.6720 C.3   229  ILE229      0.0022
    141  CG2        4.4770  -32.6810   50.1600 C.3   229  ILE229      0.0022
    142  CD1        5.7200  -29.8890   50.3090 C.3   229  ILE229      0.0001
@<TRIPOS>BOND
     1   107   108    1
     2   107   106    1
     3   108   102    1
     4   102   103    1
     5   106   103    1
     6   103   104    1
     7     1     2    1
     8     5     2    1
     9     5     6    1
    10     2     3    1
    11     3     4    2
    12     6     7    1
    13   104   105    2
    14   104   109   am
    15   109   110    1
    16     7     9   ar
    17     7     8   ar
    18   117   115   ar
    19   114   115    1
    20   114   113    1
    21    10    11    1
    22   110   113    1
    23   110   111    1
    24   115   116   ar
    25    24    22    1
    26    22    23    1
    27    22    19    1
    28   111   118   am
    29   111   112    2
    30    11    14    1
    31    11    12    1
    32   118   119    1
    33    18    19    1
    34    18    12   am
    35    14    15    1
    36    40    39    1
    37   125   124    1
    38    19    20    1
    39   120   119    1
    40   120   121    2
    41    12    13    2
    42    20    21    2
    43   119   122    1
    44   122   123    1
    45    17    15    1
    46    15    16    1
    47    39    38    1
    48   126   127    1
    49   123   124    1
    50    38    37    1
    51   127   128    1
    52   127   130    1
    53   135   128   am
    54   135   136    1
    55   137   136    1
    56   137   138    2
    57   139   141    1
    58   139   136    1
    59   139   140    1
    60   128   129    2
    61   130   131    1
    62    37    36    1
    63   142   140    1
    64    25    26    1
    65    36    33    1
    66    32    33    1
    67    32    27   am
    68    31    29    1
    69    29    26    1
    70    29    30    1
    71    33    34    1
    72    26    27    1
    73   131   132    1
    74    34    35    2
    75    96    95    2
    76    88    87    2
    77    27    28    2
    78   133   132   ar
    79   132   134   ar
    80    91    89    1
    81    95    94    1
    82    94    93    1
    83    94    97    1
    84    87    93   am
    85    87    86    1
    86    98    97    1
    87    98    99    1
    88    86    89    1
    89    86    85    1
    90    89    90    1
    91    90    92    1
    92   100    99    2
    93    99   101   am
    94    41    42    1
    95    47    46    1
    96    47    48    1
    97    45    42    1
    98    45    46    1
    99    80    79    2
   100    42    43    1
   101    43    44    2
   102    48    49    1
   103    79    78    1
   104    71    70    2
   105    78    81    1
   106    78    77    1
   107    60    58   ar
   108    60    59   ar
   109    58    56   ar
   110    81    82    1
   111    59    57   ar
   112    56    55   ar
   113    82    83    1
   114    83    84    1
   115    70    77   am
   116    70    69    1
   117    57    55   ar
   118    55    54    1
   119    54    51    1
   120    69    72    1
   121    69    68    1
   122    72    73    1
   123    75    74    2
   124    51    50    1
   125    51    52    1
   126    73    74    1
   127    74    76   am
   128    64    63    2
   129    52    53    2
   130    66    65    1
   131    63    62    1
   132    62    65    1
   133    62    61    1
   134    65    67    1
