@<TRIPOS>MOLECULE
tmp/1t79A00.pdb
 142 133 0 0 0
SMALL
GASTEIGER

@<TRIPOS>ATOM
      1  N          5.8890    6.7980   40.6700 N.3    41  GLU41      -0.1245
      2  CA         6.9450    7.3980   41.4860 C.3    41  GLU41       0.1567
      3  C          6.7260    8.9040   41.6140 C.2    41  GLU41       0.2260
      4  O          6.8920    9.4760   42.6870 O.2    41  GLU41      -0.2867
      5  CB         8.3180    7.1480   40.8470 C.3    41  GLU41       0.0388
      6  CG         9.5100    7.5520   41.7200 C.3    41  GLU41       0.1160
      7  CD         9.8530    6.5000   42.7680 C.2    41  GLU41       0.3649
      8  OE1        9.0730    5.5320   42.9210 O.co2  41  GLU41      -0.2457
      9  OE2       10.9040    6.6400   43.4410 O.co2  41  GLU41      -0.2457
     10  N          3.5080    9.6180   43.6940 N.3    44  LEU44      -0.1231
     11  CA         3.6850    9.3150   45.1080 C.3    44  LEU44       0.1693
     12  C          4.1570   10.5500   45.8730 C.2    44  LEU44       0.2591
     13  O          3.7240   10.7960   46.9950 O.2    44  LEU44      -0.2718
     14  CB         4.6890    8.1680   45.2850 C.3    44  LEU44       0.0284
     15  CG         4.6610    7.4540   46.6380 C.3    44  LEU44       0.0019
     16  CD1        3.2780    6.8360   46.8750 C.3    44  LEU44       0.0001
     17  CD2        5.7350    6.3700   46.6590 C.3    44  LEU44       0.0001
     18  N          5.0500   11.3240   45.2680 N.am   45  VAL45      -0.1980
     19  CA         5.5440   12.5340   45.9120 C.3    45  VAL45       0.1595
     20  C          4.3800   13.4970   46.1550 C.2    45  VAL45       0.2287
     21  O          4.2320   14.0380   47.2500 O.2    45  VAL45      -0.2864
     22  CB         6.6190   13.2230   45.0460 C.3    45  VAL45       0.0276
     23  CG1        6.9940   14.5780   45.6510 C.3    45  VAL45       0.0022
     24  CG2        7.8530   12.3320   44.9610 C.3    45  VAL45       0.0022
     25  N          1.9660   12.2540   48.9190 N.3    48  VAL48      -0.1231
     26  CA         2.5260   12.4190   50.2590 C.3    48  VAL48       0.1692
     27  C          2.3550   13.8650   50.7200 C.2    48  VAL48       0.2591
     28  O          1.9520   14.1270   51.8570 O.2    48  VAL48      -0.2718
     29  CB         4.0460   12.0710   50.2970 C.3    48  VAL48       0.0266
     30  CG1        4.6450   12.4610   51.6540 C.3    48  VAL48       0.0020
     31  CG2        4.2430   10.5830   50.0690 C.3    48  VAL48       0.0020
     32  N          2.6710   14.8050   49.8390 N.am   49  LYS49      -0.1980
     33  CA         2.5420   16.2180   50.1750 C.3    49  LYS49       0.1596
     34  C          1.0760   16.5880   50.3920 C.2    49  LYS49       0.2287
     35  O          0.7510   17.3720   51.2830 O.2    49  LYS49      -0.2864
     36  CB         3.1720   17.0750   49.0770 C.3    49  LYS49       0.0298
     37  CG         4.6920   16.8970   49.0090 C.3    49  LYS49       0.0038
     38  CD         5.3680   17.8840   48.0660 C.3    49  LYS49       0.0206
     39  CE         6.8870   17.7200   48.1090 C.3    49  LYS49       0.1093
     40  NZ         7.5960   18.7200   47.2600 N.3    49  LYS49      -0.1314
     41  N         -0.1560   14.9580   53.8050 N.3    52  LYS52      -0.1245
     42  CA         0.3670   15.6620   54.9700 C.3    52  LYS52       0.1561
     43  C         -0.3210   17.0050   55.2160 C.2    52  LYS52       0.2260
     44  O         -0.2220   17.5650   56.3090 O.2    52  LYS52      -0.2867
     45  CB         1.8820   15.8590   54.8290 C.3    52  LYS52       0.0271
     46  CG         2.6610   14.5500   54.9170 C.3    52  LYS52       0.0035
     47  CD         4.1320   14.7190   54.5490 C.3    52  LYS52       0.0206
     48  CE         4.9030   15.5010   55.5970 C.3    52  LYS52       0.1093
     49  NZ         6.3390   15.6350   55.2130 N.3    52  LYS52      -0.1314
     50  N         -1.6720   15.2560   60.3940 N.3    58  ARG58      -0.1245
     51  CA        -0.4640   15.3470   61.2120 C.3    58  ARG58       0.1563
     52  C         -0.6620   14.7790   62.6140 C.2    58  ARG58       0.2260
     53  O          0.3100   14.4890   63.3090 O.2    58  ARG58      -0.2867
     54  CB         0.0240   16.8020   61.3030 C.3    58  ARG58       0.0307
     55  CG         0.5940   17.3720   60.0000 C.3    58  ARG58       0.0489
     56  CD         1.7940   16.5710   59.4940 C.3    58  ARG58       0.2205
     57  NE         2.3750   17.1380   58.2740 N.pl3  58  ARG58      -0.0865
     58  CZ         3.3810   18.0090   58.2470 C.cat  58  ARG58       0.5346
     59  NH1        3.9380   18.4240   59.3780 N.pl3  58  ARG58       0.1354
     60  NH2        3.8320   18.4670   57.0840 N.pl3  58  ARG58       0.1354
     61  N          3.6140    9.4220   63.1900 N.3    62  VAL62      -0.1245
     62  CA         4.3650    9.4760   61.9440 C.3    62  VAL62       0.1561
     63  C          4.4750    8.1260   61.2340 C.2    62  VAL62       0.2260
     64  O          4.3650    8.0580   60.0090 O.2    62  VAL62      -0.2867
     65  CB         5.7860   10.0610   62.1640 C.3    62  VAL62       0.0252
     66  CG1        6.5890    9.1610   63.0850 C.3    62  VAL62       0.0019
     67  CG2        6.4860   10.2320   60.8260 C.3    62  VAL62       0.0019
     68  N          1.3230    7.5710   59.5060 N.3    65  GLN65      -0.1231
     69  CA         1.1570    8.4630   58.3630 C.3    65  GLN65       0.1698
     70  C          1.7600    7.7880   57.1330 C.2    65  GLN65       0.2592
     71  O          1.1690    7.7800   56.0510 O.2    65  GLN65      -0.2718
     72  CB         1.8820    9.7860   58.6050 C.3    65  GLN65       0.0381
     73  CG         1.2080   10.7130   59.5970 C.3    65  GLN65       0.0905
     74  CD         1.9930   11.9900   59.8070 C.2    65  GLN65       0.2608
     75  OE1        2.5660   12.5390   58.8620 O.2    65  GLN65      -0.2717
     76  NE2        2.0170   12.4800   61.0440 N.am   65  GLN65      -0.0878
     77  N          2.9500    7.2230   57.3090 N.am   66  MET66      -0.1979
     78  CA         3.6390    6.5500   56.2170 C.3    66  MET66       0.1605
     79  C          2.9150    5.2780   55.7880 C.2    66  MET66       0.2287
     80  O          2.7150    5.0390   54.5990 O.2    66  MET66      -0.2864
     81  CB         5.0710    6.1990   56.6330 C.3    66  MET66       0.0413
     82  CG         5.9450    7.4010   56.9170 C.3    66  MET66       0.0598
     83  SD         7.6870    6.9520   57.1750 S.3    66  MET66      -0.1393
     84  CE         7.6840    6.5120   58.8770 C.3    66  MET66       0.0692
     85  N         -0.3600    5.6750   53.7070 N.3    69  ILE69      -0.1231
     86  CA        -0.0530    6.1130   52.3530 C.3    69  ILE69       0.1692
     87  C          0.5070    4.9130   51.5780 C.2    69  ILE69       0.2591
     88  O          0.1530    4.6820   50.4200 O.2    69  ILE69      -0.2718
     89  CB         0.9870    7.2700   52.3680 C.3    69  ILE69       0.0266
     90  CG1        0.3540    8.5280   52.9680 C.3    69  ILE69       0.0019
     91  CG2        1.4770    7.5610   50.9510 C.3    69  ILE69       0.0020
     92  CD1        1.3370    9.6800   53.1770 C.3    69  ILE69       0.0001
     93  N          1.3740    4.1400   52.2260 N.am   70  GLN70      -0.1979
     94  CA         1.9640    2.9660   51.5900 C.3    70  GLN70       0.1601
     95  C          0.9070    1.9250   51.2190 C.2    70  GLN70       0.2287
     96  O          1.0780    1.1670   50.2650 O.2    70  GLN70      -0.2864
     97  CB         3.0050    2.3340   52.5160 C.3    70  GLN70       0.0394
     98  CG         4.3020    3.1300   52.6040 C.3    70  GLN70       0.0908
     99  CD         5.1950    2.6870   53.7490 C.2    70  GLN70       0.2608
    100  OE1        6.4140    2.8970   53.7180 O.2    70  GLN70      -0.2717
    101  NE2        4.6000    2.0910   54.7690 N.am   70  GLN70      -0.0878
    102  N         11.1330    2.3920   39.6690 N.3   224  PRO224     -0.2102
    103  CA        11.8410    3.4570   40.3870 C.3   224  PRO224      0.1504
    104  C         12.0310    3.0570   41.8510 C.2   224  PRO224      0.2576
    105  O         11.3650    2.1470   42.3450 O.2   224  PRO224     -0.2718
    106  CB        10.9080    4.6600   40.2400 C.3   224  PRO224      0.0282
    107  CG        10.1810    4.3820   38.9700 C.3   224  PRO224      0.0208
    108  CD         9.8950    2.9090   39.0600 C.3   224  PRO224      0.0893
    109  N         12.9200    3.7640   42.5400 N.am  225  GLU225     -0.1966
    110  CA        13.2470    3.4950   43.9390 C.3   225  GLU225      0.1733
    111  C         12.0860    3.3230   44.9310 C.2   225  GLU225      0.2616
    112  O         11.9560    2.2760   45.5590 O.2   225  GLU225     -0.2715
    113  CB        14.1880    4.5860   44.4500 C.3   225  GLU225      0.0429
    114  CG        14.8880    4.2450   45.7450 C.3   225  GLU225      0.1163
    115  CD        15.9490    5.2680   46.1150 C.2   225  GLU225      0.3649
    116  OE1       16.5510    5.1350   47.1990 O.co2 225  GLU225     -0.2457
    117  OE2       16.1850    6.2040   45.3210 O.co2 225  GLU225     -0.2457
    118  N         11.2510    4.3420   45.0940 N.am  226  MET226     -0.1977
    119  CA        10.1510    4.2260   46.0460 C.3   226  MET226      0.1605
    120  C          9.1620    3.1250   45.6820 C.2   226  MET226      0.2287
    121  O          8.7480    2.3470   46.5410 O.2   226  MET226     -0.2864
    122  CB         9.4180    5.5630   46.1930 C.3   226  MET226      0.0413
    123  CG        10.2880    6.6800   46.7800 C.3   226  MET226      0.0598
    124  SD         9.3550    8.1730   47.1630 S.3   226  MET226     -0.1393
    125  CE         8.9040    8.6960   45.5210 C.3   226  MET226      0.0692
    126  N         10.4920   -0.3240   46.5320 N.3   229  GLU229     -0.1231
    127  CA        10.5120   -0.5420   47.9680 C.3   229  GLU229      0.1699
    128  C          9.1140   -0.8330   48.5050 C.2   229  GLU229      0.2592
    129  O          8.9100   -1.7860   49.2460 O.2   229  GLU229     -0.2718
    130  CB        11.0900    0.6860   48.6660 C.3   229  GLU229      0.0402
    131  CG        11.0390    0.6200   50.1780 C.3   229  GLU229      0.1161
    132  CD        11.8010    1.7580   50.8220 C.2   229  GLU229      0.3649
    133  OE1       13.0460    1.7900   50.6860 O.co2 229  GLU229     -0.2457
    134  OE2       11.1570    2.6240   51.4530 O.co2 229  GLU229     -0.2457
    135  N          8.1500   -0.0100   48.1200 N.am  230  ILE230     -0.1980
    136  CA         6.7840   -0.1920   48.5920 C.3   230  ILE230      0.1595
    137  C          6.1360   -1.4810   48.0940 C.2   230  ILE230      0.2287
    138  O          5.4470   -2.1690   48.8480 O.2   230  ILE230     -0.2864
    139  CB         5.9040    1.0140   48.1880 C.3   230  ILE230      0.0276
    140  CG1        6.3370    2.2460   48.9890 C.3   230  ILE230      0.0022
    141  CG2        4.4300    0.7030   48.4260 C.3   230  ILE230      0.0022
    142  CD1        5.6070    3.5220   48.6030 C.3   230  ILE230      0.0001
@<TRIPOS>BOND
     1   107   108    1
     2   107   106    1
     3   108   102    1
     4   102   103    1
     5   106   103    1
     6   103   104    1
     7     1     2    1
     8     5     2    1
     9     5     6    1
    10     2     3    1
    11     3     4    2
    12     6     7    1
    13   104   105    2
    14   104   109   am
    15   109   110    1
    16     7     8   ar
    17     7     9   ar
    18    10    11    1
    19   110   113    1
    20   110   111    1
    21   113   114    1
    22   111   118   am
    23   111   112    2
    24    24    22    1
    25    22    23    1
    26    22    19    1
    27   118   119    1
    28    11    14    1
    29    11    12    1
    30    18    12   am
    31    18    19    1
    32    14    15    1
    33   117   115   ar
    34   125   124    1
    35   120   119    1
    36   120   121    2
    37   114   115    1
    38    12    13    2
    39    19    20    1
    40   119   122    1
    41   115   116   ar
    42    20    21    2
    43   122   123    1
    44   126   127    1
    45    15    17    1
    46    15    16    1
    47   123   124    1
    48    40    39    1
    49   127   128    1
    50   127   130    1
    51    38    39    1
    52    38    37    1
    53   137   136    1
    54   137   138    2
    55   135   128   am
    56   135   136    1
    57   139   141    1
    58   139   136    1
    59   139   140    1
    60   128   129    2
    61   142   140    1
    62   130   131    1
    63    25    26    1
    64    37    36    1
    65    36    33    1
    66    32    33    1
    67    32    27   am
    68    31    29    1
    69    33    34    1
    70   131   132    1
    71    26    29    1
    72    26    27    1
    73    96    95    2
    74    29    30    1
    75    34    35    2
    76    88    87    2
    77   133   132   ar
    78    27    28    2
    79   132   134   ar
    80    91    89    1
    81    95    94    1
    82    87    93   am
    83    87    86    1
    84    94    93    1
    85    94    97    1
    86    86    89    1
    87    86    85    1
    88    89    90    1
    89    97    98    1
    90    98    99    1
    91    90    92    1
    92   100    99    2
    93    99   101   am
    94    41    42    1
    95    47    46    1
    96    47    48    1
    97    80    79    2
    98    45    46    1
    99    45    42    1
   100    42    43    1
   101    49    48    1
   102    43    44    2
   103    79    78    1
   104    71    70    2
   105    78    81    1
   106    78    77    1
   107    81    82    1
   108    82    83    1
   109    60    58    1
   110    70    77   am
   111    70    69    1
   112    83    84    1
   113    58    57    2
   114    58    59    1
   115    57    56    1
   116    69    72    1
   117    69    68    1
   118    72    73    1
   119    75    74    2
   120    56    55    1
   121    73    74    1
   122    74    76   am
   123    55    54    1
   124    64    63    2
   125    50    51    1
   126    67    65    1
   127    51    54    1
   128    51    52    1
   129    63    62    1
   130    62    65    1
   131    62    61    1
   132    65    66    1
   133    52    53    2
