@<TRIPOS>MOLECULE
tmp/1t7fA00.pdb
 143 134 0 0 0
SMALL
GASTEIGER

@<TRIPOS>ATOM
      1  N          5.7230    6.9060   41.2590 N.3    41  GLU41      -0.1245
      2  CA         6.7520    7.5200   42.0940 C.3    41  GLU41       0.1567
      3  C          6.5180    9.0310   42.2000 C.2    41  GLU41       0.2260
      4  O          6.6100    9.6090   43.2820 O.2    41  GLU41      -0.2867
      5  CB         8.1370    7.2500   41.5040 C.3    41  GLU41       0.0388
      6  CG         9.2970    7.7040   42.3910 C.3    41  GLU41       0.1160
      7  CD         9.7540    6.6330   43.3650 C.2    41  GLU41       0.3649
      8  OE1        9.0260    5.6320   43.5460 O.co2  41  GLU41      -0.2457
      9  OE2       10.8470    6.7940   43.9550 O.co2  41  GLU41      -0.2457
     10  N          3.4310    9.7190   44.2710 N.3    44  LEU44      -0.1231
     11  CA         3.6620    9.4360   45.6860 C.3    44  LEU44       0.1693
     12  C          4.2040   10.6740   46.3890 C.2    44  LEU44       0.2591
     13  O          3.8510   10.9520   47.5350 O.2    44  LEU44      -0.2718
     14  CB         4.6390    8.2690   45.8630 C.3    44  LEU44       0.0284
     15  CG         4.8520    7.7850   47.3010 C.3    44  LEU44       0.0019
     16  CD1        3.5030    7.4530   47.9410 C.3    44  LEU44       0.0001
     17  CD2        5.7640    6.5600   47.2940 C.3    44  LEU44       0.0001
     18  N          5.0570   11.4250   45.6960 N.am   45  VAL45      -0.1980
     19  CA         5.6210   12.6450   46.2660 C.3    45  VAL45       0.1595
     20  C          4.4990   13.6300   46.5720 C.2    45  VAL45       0.2287
     21  O          4.4710   14.2410   47.6440 O.2    45  VAL45      -0.2864
     22  CB         6.6310   13.3030   45.2980 C.3    45  VAL45       0.0276
     23  CG1        7.0670   14.6680   45.8330 C.3    45  VAL45       0.0022
     24  CG2        7.8440   12.3940   45.1350 C.3    45  VAL45       0.0022
     25  N          2.2110   12.4510   49.5730 N.3    48  VAL48      -0.1231
     26  CA         2.7880   12.7090   50.8840 C.3    48  VAL48       0.1692
     27  C          2.6170   14.1800   51.2710 C.2    48  VAL48       0.2591
     28  O          2.2390   14.4850   52.3960 O.2    48  VAL48      -0.2718
     29  CB         4.2920   12.3420   50.9240 C.3    48  VAL48       0.0266
     30  CG1        4.8890   12.7360   52.2670 C.3    48  VAL48       0.0020
     31  CG2        4.4650   10.8530   50.6960 C.3    48  VAL48       0.0020
     32  N          2.8830   15.0880   50.3350 N.am   49  LYS49      -0.1980
     33  CA         2.7520   16.5230   50.6070 C.3    49  LYS49       0.1596
     34  C          1.2920   16.8740   50.8980 C.2    49  LYS49       0.2287
     35  O          0.9960   17.7000   51.7570 O.2    49  LYS49      -0.2864
     36  CB         3.2640   17.3240   49.4070 C.3    49  LYS49       0.0298
     37  CG         4.7200   17.0170   49.0690 C.3    49  LYS49       0.0038
     38  CD         5.1210   17.5230   47.6910 C.3    49  LYS49       0.0206
     39  CE         5.1550   19.0370   47.6280 C.3    49  LYS49       0.1093
     40  NZ         5.6740   19.4960   46.3050 N.3    49  LYS49      -0.1314
     41  N          0.1060   15.2570   54.4420 N.3    52  LYS52      -0.1245
     42  CA         0.6360   16.0250   55.5620 C.3    52  LYS52       0.1561
     43  C         -0.1110   17.3340   55.8010 C.2    52  LYS52       0.2260
     44  O         -0.0400   17.9020   56.8930 O.2    52  LYS52      -0.2867
     45  CB         2.1200   16.3310   55.3480 C.3    52  LYS52       0.0271
     46  CG         3.0120   15.1000   55.2770 C.3    52  LYS52       0.0035
     47  CD         4.4730   15.4720   55.4710 C.3    52  LYS52       0.0206
     48  CE         4.9450   16.4850   54.4430 C.3    52  LYS52       0.1093
     49  NZ         6.3380   16.9390   54.7320 N.3    52  LYS52      -0.1314
     50  N         -4.1740   15.3560   60.2360 N.3    57  PHE57      -0.1241
     51  CA        -3.2220   14.3000   59.9020 C.3    57  PHE57       0.1605
     52  C         -2.0270   14.2310   60.8510 C.2    57  PHE57       0.2264
     53  O         -1.5420   13.1410   61.1720 O.2    57  PHE57      -0.2867
     54  CB        -2.7140   14.4790   58.4700 C.3    57  PHE57       0.0534
     55  CG        -1.8930   13.3250   57.9710 C.ar   57  PHE57      -0.0203
     56  CD1       -2.5010   12.1370   57.5810 C.ar   57  PHE57      -0.0042
     57  CD2       -0.5100   13.4260   57.8980 C.ar   57  PHE57      -0.0042
     58  CE1       -1.7360   11.0600   57.1250 C.ar   57  PHE57      -0.0003
     59  CE2        0.2610   12.3610   57.4450 C.ar   57  PHE57      -0.0003
     60  CZ        -0.3540   11.1770   57.0570 C.ar   57  PHE57      -0.0000
     61  N          3.6530    9.5720   64.0890 N.3    62  VAL62      -0.1231
     62  CA         4.4250    9.6100   62.8520 C.3    62  VAL62       0.1692
     63  C          4.5380    8.2480   62.1670 C.2    62  VAL62       0.2592
     64  O          4.5160    8.1600   60.9370 O.2    62  VAL62      -0.2718
     65  CB         5.8420   10.1690   63.0970 C.3    62  VAL62       0.0266
     66  CG1        6.6430    9.2070   63.9570 C.3    62  VAL62       0.0020
     67  CG2        6.5340   10.4210   61.7680 C.3    62  VAL62       0.0020
     68  N          4.6590    7.1850   62.9560 N.am   63  ASP63      -0.1974
     69  CA         4.7610    5.8410   62.3990 C.3    63  ASP63       0.1709
     70  C          3.4690    5.4770   61.6780 C.2    63  ASP63       0.2293
     71  O          3.4850    4.7510   60.6840 O.2    63  ASP63      -0.2864
     72  CB         5.0420    4.8250   63.5100 C.3    63  ASP63       0.1436
     73  CG         6.4980    4.8180   63.9410 C.2    63  ASP63       0.3671
     74  OD1        7.1740    5.8550   63.7740 O.co2  63  ASP63      -0.2456
     75  OD2        6.9630    3.7790   64.4590 O.co2  63  ASP63      -0.2456
     76  N          1.4300    7.7860   60.3420 N.3    65  GLN65      -0.1231
     77  CA         1.3140    8.6800   59.1930 C.3    65  GLN65       0.1698
     78  C          1.9370    7.9490   58.0150 C.2    65  GLN65       0.2592
     79  O          1.3920    7.9190   56.9130 O.2    65  GLN65      -0.2718
     80  CB         2.0830    9.9800   59.4400 C.3    65  GLN65       0.0381
     81  CG         1.4430   10.9140   60.4530 C.3    65  GLN65       0.0905
     82  CD         2.2590   12.1750   60.6700 C.2    65  GLN65       0.2608
     83  OE1        2.8290   12.7270   59.7280 O.2    65  GLN65      -0.2717
     84  NE2        2.3070   12.6440   61.9100 N.am   65  GLN65      -0.0878
     85  N          3.0950    7.3540   58.2760 N.am   66  MET66      -0.1979
     86  CA         3.8380    6.6000   57.2780 C.3    66  MET66       0.1605
     87  C          3.0150    5.4160   56.7760 C.2    66  MET66       0.2287
     88  O          2.8180    5.2330   55.5700 O.2    66  MET66      -0.2864
     89  CB         5.1310    6.0780   57.9020 C.3    66  MET66       0.0413
     90  CG         6.1110    5.5330   56.8990 C.3    66  MET66       0.0598
     91  SD         7.0900    6.8310   56.1420 S.3    66  MET66      -0.1393
     92  CE         8.6050    5.8920   55.7870 C.3    66  MET66       0.0692
     93  N         -0.1310    6.0700   54.5170 N.3    69  ILE69      -0.1231
     94  CA         0.2440    6.4540   53.1610 C.3    69  ILE69       0.1692
     95  C          0.7100    5.2110   52.3980 C.2    69  ILE69       0.2591
     96  O          0.2980    4.9790   51.2630 O.2    69  ILE69      -0.2718
     97  CB         1.3840    7.5070   53.1700 C.3    69  ILE69       0.0266
     98  CG1        0.8610    8.8320   53.7360 C.3    69  ILE69       0.0019
     99  CG2        1.9360    7.6970   51.7640 C.3    69  ILE69       0.0020
    100  CD1        1.9410    9.8910   53.9380 C.3    69  ILE69       0.0001
    101  N          1.5640    4.4100   53.0350 N.am   70  GLN70      -0.1979
    102  CA         2.0960    3.2010   52.4140 C.3    70  GLN70       0.1601
    103  C          1.0380    2.1710   52.0480 C.2    70  GLN70       0.2287
    104  O          1.1960    1.4250   51.0860 O.2    70  GLN70      -0.2864
    105  CB         3.1330    2.5490   53.3350 C.3    70  GLN70       0.0394
    106  CG         4.4240    3.3300   53.4600 C.3    70  GLN70       0.0908
    107  CD         5.3310    2.7780   54.5450 C.2    70  GLN70       0.2608
    108  OE1        6.5490    2.9300   54.4840 O.2    70  GLN70      -0.2717
    109  NE2        4.7380    2.1520   55.5550 N.am   70  GLN70      -0.0878
    110  N         12.9230    3.7340   43.2230 N.3   225  GLU225     -0.1231
    111  CA        13.2400    3.3910   44.6050 C.3   225  GLU225      0.1699
    112  C         12.0860    3.2680   45.5980 C.2   225  GLU225      0.2592
    113  O         11.8990    2.2060   46.1900 O.2   225  GLU225     -0.2718
    114  CB        14.2650    4.3810   45.1600 C.3   225  GLU225      0.0402
    115  CG        14.8660    3.9510   46.4850 C.3   225  GLU225      0.1161
    116  CD        15.8170    4.9850   47.0510 C.2   225  GLU225      0.3649
    117  OE1       16.7430    5.4020   46.3230 O.co2 225  GLU225     -0.2457
    118  OE2       15.6440    5.3760   48.2250 O.co2 225  GLU225     -0.2457
    119  N         11.3270    4.3440   45.7980 N.am  226  MET226     -0.1979
    120  CA        10.2200    4.3060   46.7540 C.3   226  MET226      0.1605
    121  C          9.1800    3.2500   46.4060 C.2   226  MET226      0.2287
    122  O          8.6780    2.5560   47.2870 O.2   226  MET226     -0.2864
    123  CB         9.5330    5.6710   46.8630 C.3   226  MET226      0.0413
    124  CG        10.3940    6.7650   47.4670 C.3   226  MET226      0.0598
    125  SD         9.4050    8.2190   47.8680 S.3   226  MET226     -0.1393
    126  CE         8.9990    8.8030   46.2180 C.3   226  MET226      0.0692
    127  N         10.4700   -0.2560   47.2980 N.3   229  GLU229     -0.1231
    128  CA        10.5010   -0.4700   48.7380 C.3   229  GLU229      0.1699
    129  C          9.1000   -0.7450   49.2750 C.2   229  GLU229      0.2592
    130  O          8.8940   -1.6690   50.0540 O.2   229  GLU229     -0.2718
    131  CB        11.0860    0.7570   49.4380 C.3   229  GLU229      0.0402
    132  CG        11.3180    0.5720   50.9260 C.3   229  GLU229      0.1161
    133  CD        11.7500    1.8550   51.6090 C.2   229  GLU229      0.3649
    134  OE1       12.7570    2.4530   51.1710 O.co2 229  GLU229     -0.2457
    135  OE2       11.0810    2.2620   52.5830 O.co2 229  GLU229     -0.2457
    136  N          8.1360    0.0640   48.8540 N.am  230  ILE230     -0.1980
    137  CA         6.7620   -0.0980   49.3120 C.3   230  ILE230      0.1595
    138  C          6.1170   -1.3910   48.8260 C.2   230  ILE230      0.2287
    139  O          5.3970   -2.0600   49.5710 O.2   230  ILE230     -0.2864
    140  CB         5.8820    1.0790   48.8460 C.3   230  ILE230      0.0276
    141  CG1        6.3080    2.3610   49.5610 C.3   230  ILE230      0.0022
    142  CG2        4.4160    0.7710   49.1080 C.3   230  ILE230      0.0022
    143  CD1        5.5740    3.6010   49.0630 C.3   230  ILE230      0.0001
@<TRIPOS>BOND
     1     1     2    1
     2     5     2    1
     3     5     6    1
     4     2     3    1
     5     3     4    2
     6     6     7    1
     7   110   111    1
     8     7     8   ar
     9     7     9   ar
    10    10    11    1
    11   111   114    1
    12   111   112    1
    13    24    22    1
    14   114   115    1
    15    22    23    1
    16    22    19    1
    17   112   119   am
    18   112   113    2
    19    11    14    1
    20    11    12    1
    21    18    19    1
    22    18    12   am
    23   119   120    1
    24    14    15    1
    25   126   125    1
    26    19    20    1
    27    40    39    1
    28   117   116   ar
    29    12    13    2
    30   121   120    1
    31   121   122    2
    32   115   116    1
    33    20    21    2
    34   120   123    1
    35   123   124    1
    36   116   118   ar
    37    17    15    1
    38   127   128    1
    39    15    16    1
    40   124   125    1
    41    39    38    1
    42    38    37    1
    43   128   129    1
    44   128   131    1
    45   138   137    1
    46   138   139    2
    47   140   142    1
    48   140   137    1
    49   140   141    1
    50   136   129   am
    51   136   137    1
    52   143   141    1
    53    37    36    1
    54   129   130    2
    55    36    33    1
    56   131   132    1
    57    25    26    1
    58    32    33    1
    59    32    27   am
    60    33    34    1
    61    31    29    1
    62    26    29    1
    63    26    27    1
    64    34    35    2
    65    29    30    1
    66   132   133    1
    67   104   103    2
    68   134   133   ar
    69    96    95    2
    70    27    28    2
    71   133   135   ar
    72    99    97    1
    73   103   102    1
    74    95   101   am
    75    95    94    1
    76   102   101    1
    77   102   105    1
    78    94    97    1
    79    94    93    1
    80    97    98    1
    81   105   106    1
    82   106   107    1
    83    98   100    1
    84    41    42    1
    85    48    49    1
    86    48    47    1
    87   108   107    2
    88   107   109   am
    89    46    45    1
    90    46    47    1
    91    45    42    1
    92    42    43    1
    93    88    87    2
    94    92    91    1
    95    43    44    2
    96    91    90    1
    97    87    86    1
    98    90    89    1
    99    79    78    2
   100    60    58   ar
   101    60    59   ar
   102    58    56   ar
   103    86    89    1
   104    86    85    1
   105    59    57   ar
   106    56    55   ar
   107    57    55   ar
   108    55    54    1
   109    78    85   am
   110    78    77    1
   111    54    51    1
   112    77    80    1
   113    77    76    1
   114    80    81    1
   115    83    82    2
   116    51    50    1
   117    51    52    1
   118    81    82    1
   119    82    84   am
   120    71    70    2
   121    52    53    2
   122    64    63    2
   123    70    69    1
   124    67    65    1
   125    63    62    1
   126    63    68   am
   127    69    68    1
   128    69    72    1
   129    62    65    1
   130    62    61    1
   131    65    66    1
   132    72    73    1
   133    74    73   ar
   134    73    75   ar
