@<TRIPOS>MOLECULE
tmp/1t7kA00.pdb
 138 130 0 0 0
SMALL
GASTEIGER

@<TRIPOS>ATOM
      1  N         26.3370   24.4390    5.6150 N.3     8  ARG8       -0.1245
      2  CA        25.1190   25.0950    6.0610 C.3     8  ARG8        0.1563
      3  C         25.5180   26.4970    6.5260 C.2     8  ARG8        0.2260
      4  O         26.5140   26.6600    7.2250 O.2     8  ARG8       -0.2867
      5  CB        24.5030   24.3400    7.2440 C.3     8  ARG8        0.0307
      6  CG        24.0290   22.9450    6.9440 C.3     8  ARG8        0.0489
      7  CD        23.2510   22.3820    8.1340 C.3     8  ARG8        0.2205
      8  NE        22.4800   21.1950    7.7650 N.pl3   8  ARG8       -0.0865
      9  CZ        21.5520   20.6320    8.5350 C.cat   8  ARG8        0.5346
     10  NH1       20.9040   19.5550    8.1140 N.pl3   8  ARG8        0.1354
     11  NH2       21.2630   21.1510    9.7230 N.pl3   8  ARG8        0.1354
     12  N         20.4200   28.5550   11.5110 N.3    23  LEU23      -0.1245
     13  CA        20.5620   28.3680   10.0700 C.3    23  LEU23       0.1561
     14  C         19.8510   29.4510    9.2700 C.2    23  LEU23       0.2260
     15  O         18.6460   29.6270    9.4100 O.2    23  LEU23      -0.2867
     16  CB        19.9940   26.9910    9.6970 C.3    23  LEU23       0.0270
     17  CG        19.9020   26.5210    8.2450 C.3    23  LEU23       0.0019
     18  CD1       21.2900   26.4420    7.6070 C.3    23  LEU23       0.0001
     19  CD2       19.2530   25.1440    8.2300 C.3    23  LEU23       0.0001
     20  N         17.9560   30.4590    6.5410 N.3    25  ASP25      -0.1225
     21  CA        17.1790   29.6950    5.5770 C.3    25  ASP25       0.1805
     22  C         16.2430   30.4910    4.6830 C.2    25  ASP25       0.2598
     23  O         15.1800   30.9260    5.1200 O.2    25  ASP25      -0.2718
     24  CB        16.3920   28.6360    6.3360 C.3    25  ASP25       0.1424
     25  CG        15.6740   27.6860    5.4290 C.2    25  ASP25       0.3668
     26  OD1       15.8910   27.7430    4.2000 O.co2  25  ASP25      -0.2456
     27  OD2       14.8950   26.8710    5.9570 O.co2  25  ASP25      -0.2456
     28  N         16.6360   30.6630    3.4200 N.am   26  THR26      -0.1939
     29  CA        15.8160   31.4020    2.4740 C.3    26  THR26       0.2028
     30  C         14.5520   30.6190    2.1410 C.2    26  THR26       0.2643
     31  O         13.6450   31.1570    1.5330 O.2    26  THR26      -0.2714
     32  CB        16.5520   31.6660    1.1480 C.3    26  THR26       0.1808
     33  OG1       17.0370   30.4230    0.6140 O.3    26  THR26      -0.2208
     34  CG2       17.7030   32.6320    1.3610 C.3    26  THR26       0.0379
     35  N         14.5150   29.3470    2.5300 N.am   27  GLY27      -0.1939
     36  CA        13.3570   28.5040    2.2570 C.3    27  GLY27       0.2014
     37  C         12.3080   28.5190    3.3550 C.2    27  GLY27       0.2639
     38  O         11.2580   27.8790    3.2380 O.2    27  GLY27      -0.2714
     39  N         12.5940   29.2460    4.4320 N.am   28  ALA28      -0.1963
     40  CA        11.6680   29.3530    5.5430 C.3    28  ALA28       0.1728
     41  C         10.9950   30.7200    5.5940 C.2    28  ALA28       0.2616
     42  O         11.6630   31.7540    5.6480 O.2    28  ALA28      -0.2715
     43  CB        12.3960   29.0920    6.8540 C.3    28  ALA28       0.0334
     44  N          9.6660   30.7090    5.5740 N.am   29  ASP29      -0.1957
     45  CA         8.8790   31.9250    5.6500 C.3    29  ASP29       0.1840
     46  C          9.1050   32.5650    7.0200 C.2    29  ASP29       0.2622
     47  O          9.2080   33.7890    7.1490 O.2    29  ASP29      -0.2715
     48  CB         7.3840   31.6090    5.5010 C.3    29  ASP29       0.1450
     49  CG         7.0470   30.9480    4.1670 C.2    29  ASP29       0.3671
     50  OD1        7.5940   31.3730    3.1350 O.co2  29  ASP29      -0.2456
     51  OD2        6.2220   30.0100    4.1560 O.co2  29  ASP29      -0.2456
     52  N          9.1820   31.7290    8.0470 N.am   30  ASP30      -0.1971
     53  CA         9.3520   32.2340    9.4030 C.3    30  ASP30       0.1709
     54  C         10.5720   31.7770   10.1560 C.2    30  ASP30       0.2293
     55  O         11.2530   30.8300    9.7740 O.2    30  ASP30      -0.2864
     56  CB         8.1290   31.8860   10.2350 C.3    30  ASP30       0.1436
     57  CG         6.9140   32.6520    9.8090 C.2    30  ASP30       0.3671
     58  OD1        6.8800   33.8850   10.0250 O.co2  30  ASP30      -0.2456
     59  OD2        5.9920   32.0220    9.2570 O.co2  30  ASP30      -0.2456
     60  N         11.9190   30.0650   13.2970 N.3    32  VAL32      -0.1245
     61  CA        11.4360   29.1090   14.2770 C.3    32  VAL32       0.1561
     62  C         12.6350   28.5680   15.0430 C.2    32  VAL32       0.2260
     63  O         13.5940   28.0720   14.4520 O.2    32  VAL32      -0.2867
     64  CB        10.6300   27.9620   13.5940 C.3    32  VAL32       0.0252
     65  CG1       11.1560   27.7060   12.1990 C.3    32  VAL32       0.0019
     66  CG2       10.6830   26.7080   14.4250 C.3    32  VAL32       0.0019
     67  N          3.1570   24.5810   11.5840 N.3    47  ILE47      -0.1231
     68  CA         3.9910   24.7270   10.3960 C.3    47  ILE47       0.1692
     69  C          4.4510   23.3550    9.9260 C.2    47  ILE47       0.2593
     70  O          4.6670   22.4570   10.7300 O.2    47  ILE47      -0.2718
     71  CB         5.2240   25.6290   10.6470 C.3    47  ILE47       0.0266
     72  CG1        6.1060   25.0510   11.7510 C.3    47  ILE47       0.0019
     73  CG2        4.7700   27.0310   11.0050 C.3    47  ILE47       0.0020
     74  CD1        7.2930   25.9580   12.1110 C.3    47  ILE47       0.0001
     75  N          4.5920   23.1960    8.6180 N.am   48  GLY48      -0.1942
     76  CA         5.0020   21.9180    8.0850 C.3    48  GLY48       0.2014
     77  C          5.9490   22.0020    6.9050 C.2    48  GLY48       0.2639
     78  O          6.2340   23.0780    6.3660 O.2    48  GLY48      -0.2714
     79  N          6.4410   20.8320    6.5200 N.am   49  GLY49      -0.1939
     80  CA         7.3640   20.7080    5.4120 C.3    49  GLY49       0.2014
     81  C          7.7880   19.2540    5.4050 C.2    49  GLY49       0.2638
     82  O          6.9830   18.3740    5.6810 O.2    49  GLY49      -0.2714
     83  N          9.0530   19.0000    5.1140 N.am   50  ILE50      -0.1977
     84  CA         9.5570   17.6420    5.0830 C.3    50  ILE50       0.1596
     85  C          9.3370   17.0020    6.4500 C.2    50  ILE50       0.2287
     86  O          9.7060   17.5690    7.4820 O.2    50  ILE50      -0.2864
     87  CB        11.0540   17.6350    4.7470 C.3    50  ILE50       0.0276
     88  CG1       11.2820   18.3220    3.3970 C.3    50  ILE50       0.0022
     89  CG2       11.5760   16.2110    4.7110 C.3    50  ILE50       0.0022
     90  CD1       10.5940   17.6420    2.2250 C.3    50  ILE50       0.0001
     91  N          8.7570   31.9260   16.0500 N.3    76  LEU76      -0.1245
     92  CA         7.9710   30.7510   16.3830 C.3    76  LEU76       0.1561
     93  C          8.8680   29.8600   17.2220 C.2    76  LEU76       0.2260
     94  O         10.0450   29.6800   16.9090 O.2    76  LEU76      -0.2867
     95  CB         7.5380   30.0250   15.1030 C.3    76  LEU76       0.0270
     96  CG         6.8970   30.9130   14.0180 C.3    76  LEU76       0.0019
     97  CD1        6.3820   30.0420   12.8730 C.3    76  LEU76       0.0001
     98  CD2        5.7460   31.7160   14.6050 C.3    76  LEU76       0.0001
     99  N         11.4540   22.1160   16.8240 N.3    80  THR80      -0.1204
    100  CA        12.1800   22.0530   15.5620 C.3    80  THR80       0.1979
    101  C         13.5450   21.4280   15.8120 C.2    80  THR80       0.2460
    102  O         14.1630   21.6770   16.8430 O.2    80  THR80      -0.2732
    103  CB        12.3750   23.4620   14.9500 C.3    80  THR80       0.1783
    104  OG1       13.3250   23.3850   13.8870 O.3    80  THR80      -0.2211
    105  CG2       12.8770   24.4450   15.9990 C.3    80  THR80       0.0376
    106  N         14.0410   20.6080   14.8710 N.am   81  PRO81      -0.2717
    107  CA        15.3530   19.9870   15.0850 C.3    81  PRO81       0.1535
    108  C         16.5270   20.9470   14.9230 C.2    81  PRO81       0.2598
    109  O         17.6510   20.6110   15.2680 O.2    81  PRO81      -0.2715
    110  CB        15.3680   18.8550   14.0600 C.3    81  PRO81       0.0310
    111  CG        14.5720   19.4270   12.9320 C.3    81  PRO81       0.0237
    112  CD        13.4000   20.0750   13.6550 C.3    81  PRO81       0.0939
    113  N         16.2640   22.1480   14.4180 N.am   82  VAL82      -0.1978
    114  CA        17.3190   23.1380   14.2210 C.3    82  VAL82       0.1596
    115  C         16.7480   24.5490   14.3680 C.2    82  VAL82       0.2287
    116  O         15.5790   24.7810   14.0540 O.2    82  VAL82      -0.2864
    117  CB        17.9400   23.0270   12.7940 C.3    82  VAL82       0.0276
    118  CG1       19.0720   24.0510   12.6380 C.3    82  VAL82       0.0022
    119  CG2       18.4660   21.6240   12.5460 C.3    82  VAL82       0.0022
    120  N         16.0430   27.9850   13.1170 N.3    84  ILE84      -0.1245
    121  CA        15.9820   28.5330   11.7790 C.3    84  ILE84       0.1561
    122  C         15.6720   30.0160   11.7280 C.2    84  ILE84       0.2260
    123  O         14.7140   30.4780   12.3430 O.2    84  ILE84      -0.2867
    124  CB        14.9150   27.7990   10.9600 C.3    84  ILE84       0.0252
    125  CG1       15.3230   26.3300   10.8000 C.3    84  ILE84       0.0019
    126  CG2       14.7010   28.5120    9.6190 C.3    84  ILE84       0.0019
    127  CD1       14.1710   25.3940   10.5140 C.3    84  ILE84       0.0001
    128  N         12.7790   34.1500    6.4130 N.3    87  ARG87      -0.1245
    129  CA        12.6980   35.3610    5.6030 C.3    87  ARG87       0.1563
    130  C         12.1800   36.6040    6.3190 C.2    87  ARG87       0.2260
    131  O         12.5760   37.7210    5.9790 O.2    87  ARG87      -0.2867
    132  CB        11.8350   35.1150    4.3470 C.3    87  ARG87       0.0307
    133  CG        12.4730   34.2000    3.2980 C.3    87  ARG87       0.0489
    134  CD        11.6870   34.1820    1.9610 C.3    87  ARG87       0.2205
    135  NE        10.2810   33.8090    2.1340 N.pl3  87  ARG87      -0.0865
    136  CZ         9.2630   34.6680    2.1020 C.cat  87  ARG87       0.5346
    137  NH1        8.0240   34.2360    2.2790 N.pl3  87  ARG87       0.1354
    138  NH2        9.4730   35.9520    1.8700 N.pl3  87  ARG87       0.1354
@<TRIPOS>BOND
     1    33    32    1
     2    32    34    1
     3    32    29    1
     4    31    30    2
     5   138   136    1
     6   134   135    1
     7   134   133    1
     8   136   135    2
     9   136   137    1
    10    30    29    1
    11    30    35   am
    12    90    88    1
    13    36    35    1
    14    36    37    1
    15    29    28    1
    16    50    49   ar
    17    38    37    2
    18   133   132    1
    19    37    39   am
    20    88    87    1
    21    28    22   am
    22    51    49   ar
    23    49    48    1
    24    26    25   ar
    25   132   129    1
    26    39    40    1
    27    22    23    2
    28    22    21    1
    29    89    87    1
    30    87    84    1
    31    84    83    1
    32    84    85    1
    33    83    81   am
    34    81    80    1
    35    81    82    2
    36    80    79    1
    37    25    27   ar
    38    25    24    1
    39    48    45    1
    40    40    41    1
    41    40    43    1
    42    44    41   am
    43    44    45    1
    44    21    24    1
    45    21    20    1
    46    41    42    2
    47   129   130    1
    48   129   128    1
    49     1     2    1
    50    45    46    1
    51   131   130    2
    52     2     3    1
    53     2     5    1
    54    78    77    2
    55    85    86    2
    56    79    77   am
    57     3     4    2
    58    77    76    1
    59     6     5    1
    60     6     7    1
    61    46    47    2
    62    46    52   am
    63    18    17    1
    64     8     7    1
    65     8     9    2
    66    52    53    1
    67    76    75    1
    68    10     9    1
    69    19    17    1
    70    17    16    1
    71     9    11    1
    72    75    69   am
    73    59    57   ar
    74    14    15    2
    75    14    13    1
    76    53    54    1
    77    53    56    1
    78   126   124    1
    79    16    13    1
    80    55    54    2
    81    57    58   ar
    82    57    56    1
    83    69    68    1
    84    69    70    2
    85    13    12    1
    86    68    71    1
    87    68    67    1
    88   127   125    1
    89    71    73    1
    90    71    72    1
    91   125   124    1
    92   124   121    1
    93   122   121    1
    94   122   123    2
    95    72    74    1
    96   121   120    1
    97    65    64    1
    98   119   117    1
    99   118   117    1
   100   117   114    1
   101    97    96    1
   102   111   112    1
   103   111   110    1
   104    60    61    1
   105    64    61    1
   106    64    66    1
   107   112   106    1
   108   104   103    1
   109    96    98    1
   110    96    95    1
   111   116   115    2
   112   110   107    1
   113   114   115    1
   114   114   113    1
   115    61    62    1
   116   113   108   am
   117    63    62    2
   118   106   107    1
   119   106   101   am
   120   108   107    1
   121   108   109    2
   122   103   100    1
   123   103   105    1
   124    95    92    1
   125   100   101    1
   126   100    99    1
   127   101   102    2
   128    91    92    1
   129    92    93    1
   130    94    93    2
