@<TRIPOS>MOLECULE
tmp/1t7lA00.pdb
 111 106 0 0 0
SMALL
GASTEIGER

@<TRIPOS>ATOM
      1  N        153.4030   38.2340   18.9340 N.3   105  LYS105     -0.1245
      2  CA       154.7530   38.6190   18.5570 C.3   105  LYS105      0.1561
      3  C        155.1400   40.0080   19.0480 C.2   105  LYS105      0.2260
      4  O        154.3350   40.9430   19.0410 O.2   105  LYS105     -0.2867
      5  CB       154.9330   38.5140   17.0360 C.3   105  LYS105      0.0271
      6  CG       155.0780   37.0720   16.5610 C.3   105  LYS105      0.0035
      7  CD       155.0680   36.9190   15.0380 C.3   105  LYS105      0.0206
      8  CE       156.3340   37.4580   14.3790 C.3   105  LYS105      0.1093
      9  NZ       156.3590   38.9420   14.3490 N.3   105  LYS105     -0.1314
     10  N        156.7160   43.0710   18.3000 N.3   107  PHE107     -0.1241
     11  CA       157.0880   43.8180   17.1060 C.3   107  PHE107      0.1605
     12  C        157.3070   42.8590   15.9290 C.2   107  PHE107      0.2264
     13  O        156.5220   41.9360   15.7360 O.2   107  PHE107     -0.2867
     14  CB       158.3180   44.6790   17.4040 C.3   107  PHE107      0.0534
     15  CG       158.0100   45.8400   18.3090 C.ar  107  PHE107     -0.0203
     16  CD1      157.4640   47.0190   17.7870 C.ar  107  PHE107     -0.0042
     17  CD2      158.1420   45.7170   19.6920 C.ar  107  PHE107     -0.0042
     18  CE1      157.0460   48.0550   18.6340 C.ar  107  PHE107     -0.0003
     19  CE2      157.7270   46.7390   20.5450 C.ar  107  PHE107     -0.0003
     20  CZ       157.1750   47.9140   20.0130 C.ar  107  PHE107     -0.0000
     21  N        155.5070   38.1330   23.4850 N.3   113  TYR113     -0.1241
     22  CA       155.2090   38.6770   24.8030 C.3   113  TYR113      0.1605
     23  C        153.7520   38.4260   25.1560 C.2   113  TYR113      0.2264
     24  O        152.9680   37.9550   24.3290 O.2   113  TYR113     -0.2867
     25  CB       155.5030   40.1890   24.8620 C.3   113  TYR113      0.0534
     26  CG       154.4580   41.0830   24.2000 C.ar  113  TYR113     -0.0201
     27  CD1      154.4300   41.2670   22.8160 C.ar  113  TYR113     -0.0009
     28  CD2      153.4920   41.7360   24.9640 C.ar  113  TYR113     -0.0009
     29  CE1      153.4550   42.0860   22.2070 C.ar  113  TYR113      0.0417
     30  CE2      152.5190   42.5560   24.3700 C.ar  113  TYR113      0.0417
     31  CZ       152.5070   42.7240   22.9950 C.ar  113  TYR113      0.1957
     32  OH       151.5530   43.5430   22.4210 O.3   113  TYR113     -0.2866
     33  N        150.9790   50.8280   24.4130 N.3   156  TYR156     -0.1227
     34  CA       150.9110   50.5200   22.9980 C.3   156  TYR156      0.1736
     35  C        150.8720   49.0200   22.7220 C.2   156  TYR156      0.2595
     36  O        150.3510   48.5920   21.6900 O.2   156  TYR156     -0.2718
     37  CB       152.1000   51.1550   22.2660 C.3   156  TYR156      0.0548
     38  CG       151.8680   51.3170   20.7860 C.ar  156  TYR156     -0.0200
     39  CD1      152.2470   50.3270   19.8850 C.ar  156  TYR156     -0.0009
     40  CD2      151.2350   52.4570   20.2890 C.ar  156  TYR156     -0.0009
     41  CE1      152.0010   50.4690   18.5170 C.ar  156  TYR156      0.0417
     42  CE2      150.9840   52.6070   18.9270 C.ar  156  TYR156      0.0417
     43  CZ       151.3710   51.6080   18.0520 C.ar  156  TYR156      0.1957
     44  OH       151.1140   51.7570   16.7150 O.3   156  TYR156     -0.2866
     45  N        151.4150   48.2280   23.6430 N.am  157  LEU157     -0.1980
     46  CA       151.4320   46.7710   23.5000 C.3   157  LEU157      0.1596
     47  C        150.2700   46.1060   24.2470 C.2   157  LEU157      0.2287
     48  O        150.1260   44.8840   24.2200 O.2   157  LEU157     -0.2864
     49  CB       152.7610   46.2100   24.0270 C.3   157  LEU157      0.0297
     50  CG       154.0240   46.7360   23.3210 C.3   157  LEU157      0.0022
     51  CD1      155.2910   46.2120   24.0040 C.3   157  LEU157      0.0001
     52  CD2      153.9900   46.3200   21.8710 C.3   157  LEU157      0.0001
     53  N        143.3750   47.2280   20.9510 N.3   164  TRP164     -0.1241
     54  CA       144.6730   47.8330   21.2480 C.3   164  TRP164      0.1605
     55  C        144.4580   49.2520   21.7560 C.2   164  TRP164      0.2264
     56  O        143.5740   49.9500   21.2760 O.2   164  TRP164     -0.2867
     57  CB       145.5340   47.9170   19.9880 C.3   164  TRP164      0.0550
     58  CG       145.9460   46.6160   19.3930 C.ar  164  TRP164      0.0003
     59  CD1      145.6360   46.1510   18.1480 C.ar  164  TRP164      0.0946
     60  CD2      146.8260   45.6490   19.9780 C.ar  164  TRP164      0.0152
     61  NE1      146.2770   44.9530   17.9170 N.ar  164  TRP164     -0.2442
     62  CE2      147.0130   44.6230   19.0270 C.ar  164  TRP164      0.0810
     63  CE3      147.4780   45.5530   21.2160 C.ar  164  TRP164      0.0012
     64  CZ2      147.8240   43.5120   19.2730 C.ar  164  TRP164      0.0191
     65  CZ3      148.2840   44.4480   21.4590 C.ar  164  TRP164      0.0001
     66  CH2      148.4490   43.4430   20.4900 C.ar  164  TRP164      0.0015
     67  N        145.9050   52.1100   21.2010 N.3   166  ARG166     -0.1245
     68  CA       146.8620   52.8230   20.3680 C.3   166  ARG166      0.1563
     69  C        146.5310   54.2250   19.8830 C.2   166  ARG166      0.2260
     70  O        147.4320   54.9540   19.4790 O.2   166  ARG166     -0.2867
     71  CB       147.2500   51.9260   19.1940 C.3   166  ARG166      0.0307
     72  CG       147.9590   50.6900   19.6950 C.3   166  ARG166      0.0489
     73  CD       148.2930   49.6730   18.6290 C.3   166  ARG166      0.2205
     74  NE       149.1220   48.6300   19.2240 N.pl3 166  ARG166     -0.0865
     75  CZ       149.5130   47.5270   18.5990 C.cat 166  ARG166      0.5346
     76  NH1      149.1460   47.3080   17.3430 N.pl3 166  ARG166      0.1354
     77  NH2      150.2760   46.6470   19.2340 N.pl3 166  ARG166      0.1354
     78  N        156.9650   52.8870   15.3730 N.3   206  CYS206     -0.1235
     79  CA       155.7320   52.5540   14.6630 C.3   206  CYS206      0.1677
     80  C        155.3120   53.8270   13.9130 C.2   206  CYS206      0.2270
     81  O        155.8610   54.9000   14.1650 O.2   206  CYS206     -0.2867
     82  CB       154.6280   52.1640   15.6520 C.3   206  CYS206      0.0956
     83  SG       154.9290   50.6180   16.5660 S.3   206  CYS206     -0.0801
     84  N        152.6560   37.8380    6.5290 N.3   583  ARG583     -0.1245
     85  CA       152.3120   39.0280    7.2910 C.3   583  ARG583      0.1563
     86  C        153.2850   39.2170    8.4580 C.2   583  ARG583      0.2260
     87  O        153.6730   40.3400    8.7810 O.2   583  ARG583     -0.2867
     88  CB       150.8760   38.9160    7.8250 C.3   583  ARG583      0.0307
     89  CG       150.5380   39.8720    8.9830 C.3   583  ARG583      0.0489
     90  CD       150.6610   41.3400    8.5760 C.3   583  ARG583      0.2205
     91  NE       150.3350   42.2600    9.6710 N.pl3 583  ARG583     -0.0865
     92  CZ       151.1910   42.6750   10.6060 C.cat 583  ARG583      0.5346
     93  NH1      152.4560   42.2640   10.6030 N.pl3 583  ARG583      0.1354
     94  NH2      150.7780   43.5080   11.5550 N.pl3 583  ARG583      0.1354
     95  N        157.5430   46.8300   10.7200 N.3   588  ILE588     -0.1245
     96  CA       156.7610   47.3390   11.8390 C.3   588  ILE588      0.1561
     97  C        155.9350   48.5090   11.3030 C.2   588  ILE588      0.2260
     98  O        154.7680   48.6690   11.6540 O.2   588  ILE588     -0.2867
     99  CB       157.6940   47.8030   12.9750 C.3   588  ILE588      0.0252
    100  CG1      158.3860   46.5800   13.5830 C.3   588  ILE588      0.0019
    101  CG2      156.9170   48.5820   14.0260 C.3   588  ILE588      0.0019
    102  CD1      159.4810   46.9120   14.5550 C.3   588  ILE588      0.0001
    103  N        153.6770   50.0970    8.8240 N.3   590  LYS590     -0.1245
    104  CA       152.7780   49.6820    7.7600 C.3   590  LYS590      0.1561
    105  C        153.0050   50.5640    6.5370 C.2   590  LYS590      0.2260
    106  O        152.6480   50.1870    5.4210 O.2   590  LYS590     -0.2867
    107  CB       151.3220   49.7580    8.2360 C.3   590  LYS590      0.0271
    108  CG       151.0190   48.7080    9.2890 C.3   590  LYS590      0.0035
    109  CD       149.6120   48.8110    9.8250 C.3   590  LYS590      0.0206
    110  CE       149.4350   47.9070   11.0340 C.3   590  LYS590      0.1093
    111  NZ       148.1160   48.1630   11.6810 N.3   590  LYS590     -0.1314
@<TRIPOS>BOND
     1   106   105    2
     2    84    85    1
     3   105   104    1
     4    85    88    1
     5    85    86    1
     6   104   107    1
     7   104   103    1
     8    88    89    1
     9   107   108    1
    10    86    87    2
    11    90    89    1
    12    90    91    1
    13   108   109    1
    14    91    92    2
    15   109   110    1
    16    93    92    1
    17    92    94    1
    18    95    96    1
    19   110   111    1
    20    97    98    2
    21    97    96    1
    22    96    99    1
    23    99   100    1
    24    99   101    1
    25   100   102    1
    26    80    81    2
    27    80    79    1
    28     9     8    1
    29     8     7    1
    30    79    78    1
    31    79    82    1
    32     7     6    1
    33    82    83    1
    34    13    12    2
    35    12    11    1
    36     6     5    1
    37    44    43    1
    38     5     2    1
    39    11    14    1
    40    11    10    1
    41    76    75    1
    42    14    15    1
    43    16    15   ar
    44    16    18   ar
    45    61    59   ar
    46    61    62   ar
    47    43    41   ar
    48    43    42   ar
    49    59    58   ar
    50    15    17   ar
    51    41    39   ar
    52     2     1    1
    53     2     3    1
    54    75    74    2
    55    75    77    1
    56    73    74    1
    57    73    72    1
    58    18    20   ar
    59    42    40   ar
    60    62    64   ar
    61    62    60   ar
    62     4     3    2
    63    71    72    1
    64    71    68    1
    65    64    66   ar
    66    58    60   ar
    67    58    57    1
    68    70    69    2
    69    17    19   ar
    70    69    68    1
    71    39    38   ar
    72    60    63   ar
    73    57    54    1
    74    20    19   ar
    75    40    38   ar
    76    68    67    1
    77    66    65   ar
    78    38    37    1
    79    53    54    1
    80    63    65   ar
    81    54    55    1
    82    56    55    2
    83    36    35    2
    84    52    50    1
    85    29    27   ar
    86    29    31   ar
    87    37    34    1
    88    32    31    1
    89    35    34    1
    90    35    45   am
    91    27    26   ar
    92    31    30   ar
    93    34    33    1
    94    50    51    1
    95    50    49    1
    96    21    22    1
    97    46    45    1
    98    46    49    1
    99    46    47    1
   100    26    25    1
   101    26    28   ar
   102    48    47    2
   103    24    23    2
   104    30    28   ar
   105    22    25    1
   106    22    23    1
