@<TRIPOS>MOLECULE
tmp/1t7oA00.pdb
 132 127 0 0 0
SMALL
GASTEIGER

@<TRIPOS>ATOM
      1  N         40.8290   26.6280    4.4550 N.3    76  TRP76      -0.1241
      2  CA        40.3290   25.3300    4.0020 C.3    76  TRP76       0.1605
      3  C         40.7000   24.2150    4.9750 C.2    76  TRP76       0.2264
      4  O         39.8650   23.3900    5.3550 O.2    76  TRP76      -0.2867
      5  CB        40.8750   24.9850    2.6250 C.3    76  TRP76       0.0550
      6  CG        40.3520   23.6650    2.1280 C.ar   76  TRP76       0.0003
      7  CD1       41.0790   22.5300    1.8750 C.ar   76  TRP76       0.0946
      8  CD2       38.9870   23.3410    1.8380 C.ar   76  TRP76       0.0152
      9  NE1       40.2520   21.5300    1.4490 N.ar   76  TRP76      -0.2442
     10  CE2       38.9620   21.9960    1.4140 C.ar   76  TRP76       0.0810
     11  CE3       37.7810   24.0570    1.8960 C.ar   76  TRP76       0.0012
     12  CZ2       37.7690   21.3450    1.0480 C.ar   76  TRP76       0.0191
     13  CZ3       36.5980   23.4150    1.5340 C.ar   76  TRP76       0.0001
     14  CH2       36.6000   22.0720    1.1140 C.ar   76  TRP76       0.0015
     15  N         38.4420   20.2820    7.8570 N.3    81  TYR81      -0.1241
     16  CA        38.9200   19.1830    8.7020 C.3    81  TYR81       0.1605
     17  C         39.1460   19.4390   10.2050 C.2    81  TYR81       0.2264
     18  O         38.4800   18.8280   11.0590 O.2    81  TYR81      -0.2867
     19  CB        40.2040   18.6250    8.0830 C.3    81  TYR81       0.0534
     20  CG        40.0610   18.2790    6.6110 C.ar   81  TYR81      -0.0201
     21  CD1       40.8570   18.9010    5.6460 C.ar   81  TYR81      -0.0009
     22  CD2       39.1470   17.3240    6.1880 C.ar   81  TYR81      -0.0009
     23  CE1       40.7440   18.5780    4.2950 C.ar   81  TYR81       0.0417
     24  CE2       39.0250   16.9880    4.8330 C.ar   81  TYR81       0.0417
     25  CZ        39.8280   17.6210    3.8980 C.ar   81  TYR81       0.1957
     26  OH        39.7070   17.3010    2.5680 O.3    81  TYR81      -0.2866
     27  N         35.7700   11.0740    7.0230 N.3    92  SER92      -0.1217
     28  CA        36.7960   11.9440    6.4530 C.3    92  SER92       0.1889
     29  C         37.9940   11.2240    5.8120 C.2    92  SER92       0.2288
     30  O         38.3370   11.5020    4.6720 O.2    92  SER92      -0.2866
     31  CB        37.2860   12.9110    7.5300 C.3    92  SER92       0.2089
     32  OG        38.3370   13.7220    7.0500 O.3    92  SER92      -0.2183
     33  N         39.9870    8.8760    3.6760 N.3    94  PRO94      -0.2116
     34  CA        39.6520    7.9920    2.5630 C.3    94  PRO94       0.1372
     35  C         40.2490    6.6110    2.7470 C.2    94  PRO94       0.2244
     36  O         41.3180    6.4580    3.3480 O.2    94  PRO94      -0.2868
     37  CB        40.2500    8.7090    1.3590 C.3    94  PRO94       0.0268
     38  CG        40.2100   10.1340    1.7540 C.3    94  PRO94       0.0207
     39  CD        40.6850   10.0740    3.1870 C.3    94  PRO94       0.0892
     40  N         44.2530    7.1560    4.7190 N.3   315  TYR315     -0.1241
     41  CA        44.9570    8.3730    5.0810 C.3   315  TYR315      0.1605
     42  C         44.0420    9.3940    5.7380 C.2   315  TYR315      0.2264
     43  O         42.8510    9.4720    5.4330 O.2   315  TYR315     -0.2867
     44  CB        45.6630    8.9730    3.8500 C.3   315  TYR315      0.0534
     45  CG        44.7790    9.4860    2.7170 C.ar  315  TYR315     -0.0201
     46  CD1       44.3560   10.8140    2.6840 C.ar  315  TYR315     -0.0009
     47  CD2       44.4340    8.6600    1.6400 C.ar  315  TYR315     -0.0009
     48  CE1       43.6190   11.3200    1.6010 C.ar  315  TYR315      0.0417
     49  CE2       43.6890    9.1540    0.5470 C.ar  315  TYR315      0.0417
     50  CZ        43.2920   10.4840    0.5400 C.ar  315  TYR315      0.1957
     51  OH        42.5740   10.9850   -0.5250 O.3   315  TYR315     -0.2866
     52  N         42.7210   12.8920    6.1370 N.3   317  HIS317     -0.1241
     53  CA        42.5960   14.0400    5.2490 C.3   317  HIS317      0.1621
     54  C         43.1970   15.3740    5.6770 C.2   317  HIS317      0.2264
     55  O         43.5300   16.1950    4.8200 O.2   317  HIS317     -0.2867
     56  CB        41.1250   14.2460    4.8880 C.3   317  HIS317      0.0745
     57  CG        40.8490   14.1280    3.4240 C.ar  317  HIS317      0.0817
     58  ND1       41.3960   14.9840    2.4920 N.ar  317  HIS317     -0.2268
     59  CD2       40.1160   13.2300    2.7250 C.ar  317  HIS317      0.1154
     60  CE1       41.0150   14.6150    1.2810 C.ar  317  HIS317      0.1986
     61  NE2       40.2380   13.5520    1.3960 N.ar  317  HIS317     -0.2212
     62  N         46.2020   14.9120    0.7670 N.3   321  GLU321     -0.1245
     63  CA        45.3300   15.2100   -0.3600 C.3   321  GLU321      0.1567
     64  C         45.4820   14.0260   -1.3160 C.2   321  GLU321      0.2260
     65  O         46.3630   13.1890   -1.1290 O.2   321  GLU321     -0.2867
     66  CB        45.7700   16.5210   -1.0210 C.3   321  GLU321      0.0388
     67  CG        44.7100   17.2250   -1.8710 C.3   321  GLU321      0.1160
     68  CD        43.3480   17.2620   -1.2070 C.2   321  GLU321      0.3649
     69  OE1       42.5550   16.3070   -1.4230 O.co2 321  GLU321     -0.2457
     70  OE2       43.0770   18.2360   -0.4630 O.co2 321  GLU321     -0.2457
     71  N         29.0610   17.1510   -5.9810 N.3   426  TYR426     -0.1241
     72  CA        30.3940   17.6680   -5.7660 C.3   426  TYR426      0.1605
     73  C         31.3850   16.6860   -6.3810 C.2   426  TYR426      0.2264
     74  O         31.1970   15.4730   -6.2840 O.2   426  TYR426     -0.2867
     75  CB        30.6120   17.7820   -4.2430 C.3   426  TYR426      0.0534
     76  CG        32.0070   18.1550   -3.7910 C.ar  426  TYR426     -0.0201
     77  CD1       32.2510   19.3700   -3.1260 C.ar  426  TYR426     -0.0009
     78  CD2       33.0830   17.2920   -3.9990 C.ar  426  TYR426     -0.0009
     79  CE1       33.5260   19.7040   -2.6820 C.ar  426  TYR426      0.0417
     80  CE2       34.3530   17.6150   -3.5650 C.ar  426  TYR426      0.0417
     81  CZ        34.5710   18.8220   -2.9050 C.ar  426  TYR426      0.1957
     82  OH        35.8400   19.1270   -2.4620 O.3   426  TYR426     -0.2866
     83  N         35.6810   16.5680   -6.6230 N.3   428  SER428     -0.1217
     84  CA        36.9680   17.1710   -6.3060 C.3   428  SER428      0.1889
     85  C         37.7480   17.6400   -7.5330 C.2   428  SER428      0.2288
     86  O         37.9440   16.8810   -8.4840 O.2   428  SER428     -0.2866
     87  CB        37.8400   16.1710   -5.5520 C.3   428  SER428      0.2089
     88  OG        37.2880   15.8430   -4.2920 O.3   428  SER428     -0.2183
     89  N         42.0780   21.7750   -3.1810 N.3   439  THR439     -0.1218
     90  CA        40.9360   21.4680   -4.0320 C.3   439  THR439      0.1862
     91  C         39.8840   22.5670   -4.1820 C.2   439  THR439      0.2287
     92  O         39.8200   23.5140   -3.3930 O.2   439  THR439     -0.2866
     93  CB        40.1890   20.2340   -3.4940 C.3   439  THR439      0.1770
     94  OG1       39.6010   20.5590   -2.2270 O.3   439  THR439     -0.2211
     95  CG2       41.1370   19.0650   -3.3060 C.3   439  THR439      0.0375
     96  N         28.6660   12.9070   -3.3300 N.3   526  SER526     -0.1202
     97  CA        30.0130   13.3860   -3.0820 C.3   526  SER526      0.2020
     98  C         30.9180   12.4910   -3.8940 C.2   526  SER526      0.2619
     99  O         30.9250   11.2780   -3.6980 O.2   526  SER526     -0.2717
    100  CB        30.3690   13.2600   -1.6040 C.3   526  SER526      0.2103
    101  OG        31.6710   13.7630   -1.3650 O.3   526  SER526     -0.2182
    102  N         31.6940   13.0810   -4.7980 N.am  527  THR527     -0.1938
    103  CA        32.5500   12.2670   -5.6480 C.3   527  THR527      0.2028
    104  C         33.9660   12.7630   -5.8610 C.2   527  THR527      0.2642
    105  O         34.2810   13.9360   -5.6570 O.2   527  THR527     -0.2714
    106  CB        31.9540   12.1310   -7.0370 C.3   527  THR527      0.1808
    107  OG1       32.0550   13.3970   -7.6970 O.3   527  THR527     -0.2208
    108  CG2       30.5010   11.7150   -6.9530 C.3   527  THR527      0.0379
    109  N         34.8060   11.8300   -6.2940 N.am  528  SER528     -0.1949
    110  CA        36.1830   12.1240   -6.6110 C.3   528  SER528      0.1924
    111  C         36.7400   10.9790   -7.4370 C.2   528  SER528      0.2314
    112  O         36.3910    9.8080   -7.2450 O.2   528  SER528     -0.2863
    113  CB        37.0170   12.3220   -5.3410 C.3   528  SER528      0.2116
    114  OG        37.1660   11.1170   -4.6250 O.3   528  SER528     -0.2180
    115  N         34.8690    6.2840    0.6060 N.3   540  PHE540     -0.1241
    116  CA        34.6810    7.1290    1.7680 C.3   540  PHE540      0.1605
    117  C         33.1890    7.2740    2.0260 C.2   540  PHE540      0.2264
    118  O         32.3670    7.0490    1.1290 O.2   540  PHE540     -0.2867
    119  CB        35.3120    8.5050    1.5170 C.3   540  PHE540      0.0534
    120  CG        34.9740    9.0890    0.1640 C.ar  540  PHE540     -0.0203
    121  CD1       33.6850    9.5150   -0.1270 C.ar  540  PHE540     -0.0042
    122  CD2       35.9360    9.1610   -0.8350 C.ar  540  PHE540     -0.0042
    123  CE1       33.3560   10.0010   -1.3910 C.ar  540  PHE540     -0.0003
    124  CE2       35.6150    9.6460   -2.1070 C.ar  540  PHE540     -0.0003
    125  CZ        34.3230   10.0650   -2.3830 C.ar  540  PHE540     -0.0000
    126  N         28.8750   12.5390    2.6060 N.3   543  VAL543     -0.1245
    127  CA        29.0260   13.7450    3.4000 C.3   543  VAL543      0.1561
    128  C         27.7000   14.1940    4.0160 C.2   543  VAL543      0.2260
    129  O         27.6640   15.1550    4.7850 O.2   543  VAL543     -0.2867
    130  CB        29.6400   14.9020    2.5680 C.3   543  VAL543      0.0252
    131  CG1       30.9860   14.4610    1.9930 C.3   543  VAL543      0.0019
    132  CG2       28.6730   15.3410    1.4640 C.3   543  VAL543      0.0019
@<TRIPOS>BOND
     1    86    85    2
     2   107   106    1
     3    85    84    1
     4   111   112    2
     5   111   110    1
     6   106   108    1
     7   106   103    1
     8    83    84    1
     9   110   109    1
    10   110   113    1
    11    73    74    2
    12    73    72    1
    13    84    87    1
    14   109   104   am
    15    71    72    1
    16   104   105    2
    17   104   103    1
    18    72    75    1
    19   103   102    1
    20    87    88    1
    21   113   114    1
    22   102    98   am
    23    75    76    1
    24    91    90    1
    25    91    92    2
    26    90    93    1
    27    90    89    1
    28    78    76   ar
    29    78    80   ar
    30    98    99    2
    31    98    97    1
    32    76    77   ar
    33    80    81   ar
    34    93    95    1
    35    93    94    1
    36    96    97    1
    37    77    79   ar
    38    97   100    1
    39    81    79   ar
    40    81    82    1
    41   125   124   ar
    42   125   123   ar
    43   124   122   ar
    44    67    68    1
    45    67    66    1
    46   100   101    1
    47    69    68   ar
    48   123   121   ar
    49    64    65    2
    50    64    63    1
    51    68    70   ar
    52    66    63    1
    53   122   120   ar
    54    51    50    1
    55    63    62    1
    56   121   120   ar
    57   120   119    1
    58    50    49   ar
    59    50    48   ar
    60    49    47   ar
    61   115   116    1
    62    12    14   ar
    63    12    10   ar
    64    14    13   ar
    65   118   117    2
    66    60    61   ar
    67    60    58   ar
    68    37    38    1
    69    37    34    1
    70    61    59   ar
    71    10     9   ar
    72    10     8   ar
    73     9     7   ar
    74   132   130    1
    75   119   116    1
    76    13    11   ar
    77    48    46   ar
    78    47    45   ar
    79    38    39    1
    80   116   117    1
    81     8    11   ar
    82     8     6   ar
    83     7     6   ar
    84   131   130    1
    85     6     5    1
    86    58    57   ar
    87    34    35    1
    88    34    33    1
    89    26    25    1
    90   130   127    1
    91   126   127    1
    92     5     2    1
    93    46    45   ar
    94    45    44    1
    95    59    57   ar
    96    35    36    2
    97    39    33    1
    98   127   128    1
    99    57    56    1
   100    44    41    1
   101    25    23   ar
   102    25    24   ar
   103     2     1    1
   104     2     3    1
   105   128   129    2
   106    23    21   ar
   107    30    29    2
   108    40    41    1
   109    55    54    2
   110    24    22   ar
   111    56    53    1
   112     3     4    2
   113    41    42    1
   114    53    54    1
   115    53    52    1
   116    43    42    2
   117    21    20   ar
   118    29    28    1
   119    22    20   ar
   120    28    27    1
   121    28    31    1
   122    20    19    1
   123    32    31    1
   124    15    16    1
   125    19    16    1
   126    16    17    1
   127    17    18    2
