@<TRIPOS>MOLECULE
tmp/1t7rA00.pdb
 142 133 0 0 0
SMALL
GASTEIGER

@<TRIPOS>ATOM
      1  N         -3.3970   23.2950   43.8500 N.3    44  LEU44      -0.1231
      2  CA        -3.5780   23.5730   45.2740 C.3    44  LEU44       0.1693
      3  C         -4.1630   22.3610   45.9950 C.2    44  LEU44       0.2591
      4  O         -3.8220   22.0920   47.1460 O.2    44  LEU44      -0.2718
      5  CB        -4.4740   24.8000   45.4910 C.3    44  LEU44       0.0284
      6  CG        -4.5180   25.3120   46.9380 C.3    44  LEU44       0.0019
      7  CD1       -3.1120   25.6940   47.3970 C.3    44  LEU44       0.0001
      8  CD2       -5.4470   26.5110   47.0290 C.3    44  LEU44       0.0001
      9  N         -5.0420   21.6320   45.3140 N.am   45  VAL45      -0.1980
     10  CA        -5.6360   20.4350   45.8940 C.3    45  VAL45       0.1595
     11  C         -4.5100   19.4510   46.2080 C.2    45  VAL45       0.2287
     12  O         -4.4710   18.8580   47.2860 O.2    45  VAL45      -0.2864
     13  CB        -6.6370   19.7810   44.9120 C.3    45  VAL45       0.0276
     14  CG1       -7.0600   18.4010   45.4200 C.3    45  VAL45       0.0022
     15  CG2       -7.8560   20.6830   44.7570 C.3    45  VAL45       0.0022
     16  N         -2.1570   20.6550   49.1140 N.3    48  VAL48      -0.1231
     17  CA        -2.7310   20.4310   50.4370 C.3    48  VAL48       0.1692
     18  C         -2.5330   18.9740   50.8700 C.2    48  VAL48       0.2591
     19  O         -2.1210   18.7110   51.9970 O.2    48  VAL48      -0.2718
     20  CB        -4.2430   20.7730   50.4630 C.3    48  VAL48       0.0266
     21  CG1       -4.8610   20.3010   51.7760 C.3    48  VAL48       0.0020
     22  CG2       -4.4400   22.2810   50.2980 C.3    48  VAL48       0.0020
     23  N         -2.8170   18.0310   49.9730 N.am   49  LYS49      -0.1980
     24  CA        -2.6540   16.6060   50.2860 C.3    49  LYS49       0.1596
     25  C         -1.1910   16.2960   50.5820 C.2    49  LYS49       0.2287
     26  O         -0.8720   15.5250   51.4880 O.2    49  LYS49      -0.2864
     27  CB        -3.1160   15.7340   49.1170 C.3    49  LYS49       0.0298
     28  CG        -4.5820   15.8840   48.7470 C.3    49  LYS49       0.0038
     29  CD        -4.9300   14.9590   47.5920 C.3    49  LYS49       0.0206
     30  CE        -6.3820   15.0980   47.1700 C.3    49  LYS49       0.1093
     31  NZ        -6.7020   14.1860   46.0340 N.3    49  LYS49      -0.1314
     32  N         -0.0180   18.0240   54.0730 N.3    52  LYS52      -0.1245
     33  CA        -0.5360   17.3100   55.2290 C.3    52  LYS52       0.1561
     34  C          0.1610   15.9760   55.4780 C.2    52  LYS52       0.2260
     35  O          0.0670   15.4320   56.5730 O.2    52  LYS52      -0.2867
     36  CB        -2.0430   17.0990   55.0840 C.3    52  LYS52       0.0271
     37  CG        -2.8290   18.4020   55.1410 C.3    52  LYS52       0.0035
     38  CD        -4.2640   18.2130   54.6960 C.3    52  LYS52       0.0206
     39  CE        -5.1050   17.5110   55.7400 C.3    52  LYS52       0.1093
     40  NZ        -6.4500   17.2120   55.1720 N.3    52  LYS52      -0.1314
     41  N          4.4140   17.6900   59.9570 N.3    57  PHE57      -0.1241
     42  CA         3.4290   18.7310   59.6630 C.3    57  PHE57       0.1605
     43  C          2.3210   18.8060   60.7120 C.2    57  PHE57       0.2264
     44  O          1.8350   19.8930   61.0330 O.2    57  PHE57      -0.2867
     45  CB         2.8100   18.5080   58.2780 C.3    57  PHE57       0.0534
     46  CG         2.0380   19.6940   57.7570 C.ar   57  PHE57      -0.0203
     47  CD1        2.6970   20.8600   57.3750 C.ar   57  PHE57      -0.0042
     48  CD2        0.6520   19.6450   57.6490 C.ar   57  PHE57      -0.0042
     49  CE1        1.9840   21.9610   56.8920 C.ar   57  PHE57      -0.0003
     50  CE2       -0.0680   20.7370   57.1680 C.ar   57  PHE57      -0.0003
     51  CZ         0.5980   21.8950   56.7890 C.ar   57  PHE57      -0.0000
     52  N         -3.3540   23.4900   63.9340 N.3    62  VAL62      -0.1245
     53  CA        -4.1180   23.4060   62.6940 C.3    62  VAL62       0.1561
     54  C         -4.2860   24.7450   61.9730 C.2    62  VAL62       0.2260
     55  O         -4.2600   24.7970   60.7390 O.2    62  VAL62      -0.2867
     56  CB        -5.5130   22.7730   62.9290 C.3    62  VAL62       0.0252
     57  CG1       -6.4010   23.7210   63.7090 C.3    62  VAL62       0.0019
     58  CG2       -6.1440   22.4100   61.5960 C.3    62  VAL62       0.0019
     59  N         -1.2240   25.2550   60.1140 N.3    65  GLN65      -0.1231
     60  CA        -1.0960   24.3200   59.0010 C.3    65  GLN65       0.1698
     61  C         -1.7550   24.9580   57.7880 C.2    65  GLN65       0.2592
     62  O         -1.1990   24.9770   56.6930 O.2    65  GLN65      -0.2718
     63  CB        -1.8020   22.9970   59.3130 C.3    65  GLN65       0.0381
     64  CG        -1.0770   22.0990   60.3000 C.3    65  GLN65       0.0905
     65  CD        -1.8680   20.8430   60.6180 C.2    65  GLN65       0.2608
     66  OE1       -2.4490   20.2230   59.7270 O.2    65  GLN65      -0.2717
     67  NE2       -1.8860   20.4560   61.8890 N.am   65  GLN65      -0.0878
     68  N         -2.9500   25.4990   57.9890 N.am   66  MET66      -0.1979
     69  CA        -3.6600   26.1210   56.8900 C.3    66  MET66       0.1605
     70  C         -2.9890   27.4090   56.4260 C.2    66  MET66       0.2287
     71  O         -2.9110   27.6760   55.2280 O.2    66  MET66      -0.2864
     72  CB        -5.1070   26.4050   57.2890 C.3    66  MET66       0.0413
     73  CG        -5.8910   25.1560   57.6350 C.3    66  MET66       0.0598
     74  SD        -7.6510   25.4910   57.8000 S.3    66  MET66      -0.1393
     75  CE        -7.6910   26.3110   59.3890 C.3    66  MET66       0.0692
     76  N          0.2590   27.0220   54.1510 N.3    69  ILE69      -0.1231
     77  CA        -0.0610   26.6030   52.7950 C.3    69  ILE69       0.1692
     78  C         -0.6060   27.8040   52.0210 C.2    69  ILE69       0.2591
     79  O         -0.2190   28.0440   50.8790 O.2    69  ILE69      -0.2718
     80  CB        -1.1160   25.4730   52.7790 C.3    69  ILE69       0.0266
     81  CG1       -0.5360   24.2020   53.4060 C.3    69  ILE69       0.0019
     82  CG2       -1.5530   25.1980   51.3440 C.3    69  ILE69       0.0020
     83  CD1       -1.5840   23.1310   53.6990 C.3    69  ILE69       0.0001
     84  N         -1.4950   28.5700   52.6490 N.am   70  GLN70      -0.1979
     85  CA        -2.0810   29.7260   51.9810 C.3    70  GLN70       0.1601
     86  C         -1.0740   30.8320   51.6670 C.2    70  GLN70       0.2287
     87  O         -1.2830   31.6150   50.7420 O.2    70  GLN70      -0.2864
     88  CB        -3.2470   30.2860   52.8030 C.3    70  GLN70       0.0394
     89  CG        -4.4020   29.3000   52.9380 C.3    70  GLN70       0.0908
     90  CD        -5.5650   29.8460   53.7430 C.2    70  GLN70       0.2608
     91  OE1       -6.4960   30.4370   53.1940 O.2    70  GLN70      -0.2717
     92  NE2       -5.5110   29.6570   55.0540 N.am   70  GLN70      -0.0878
     93  N        -13.5640   30.1120   42.3990 N.3   225  GLU225     -0.1231
     94  CA       -13.9590   30.7110   43.6710 C.3   225  GLU225      0.1699
     95  C        -12.9110   30.6070   44.7790 C.2   225  GLU225      0.2592
     96  O        -12.6810   31.5710   45.5080 O.2   225  GLU225     -0.2718
     97  CB       -15.2790   30.1010   44.1500 C.3   225  GLU225      0.0402
     98  CG       -16.4700   30.4130   43.2480 C.3   225  GLU225      0.1161
     99  CD       -16.8810   31.8780   43.2830 C.2   225  GLU225      0.3649
    100  OE1      -17.7820   32.2590   42.5020 O.co2 225  GLU225     -0.2457
    101  OE2      -16.3150   32.6480   44.0890 O.co2 225  GLU225     -0.2457
    102  N        -12.2720   29.4490   44.9120 N.am  226  MET226     -0.1979
    103  CA       -11.2690   29.2880   45.9570 C.3   226  MET226      0.1605
    104  C        -10.0440   30.1700   45.7350 C.2   226  MET226      0.2287
    105  O         -9.4860   30.7210   46.6870 O.2   226  MET226     -0.2864
    106  CB       -10.8370   27.8270   46.0770 C.3   226  MET226      0.0413
    107  CG        -9.7540   27.6180   47.1280 C.3   226  MET226      0.0598
    108  SD        -9.5150   25.9020   47.5890 S.3   226  MET226     -0.1393
    109  CE        -8.6080   25.2920   46.1500 C.3   226  MET226      0.0692
    110  N        -10.7920   33.6820   46.6470 N.3   229  GLU229     -0.1231
    111  CA       -10.8070   33.8180   48.0950 C.3   229  GLU229      0.1699
    112  C         -9.3980   34.0060   48.6510 C.2   229  GLU229      0.2592
    113  O         -9.1370   34.9480   49.3890 O.2   229  GLU229     -0.2718
    114  CB       -11.4550   32.5820   48.7150 C.3   229  GLU229      0.0402
    115  CG       -11.3270   32.4740   50.2150 C.3   229  GLU229      0.1161
    116  CD       -11.8750   31.1610   50.7280 C.2   229  GLU229      0.3649
    117  OE1      -13.1130   30.9800   50.6900 O.co2 229  GLU229     -0.2457
    118  OE2      -11.0660   30.3070   51.1520 O.co2 229  GLU229     -0.2457
    119  N         -8.4890   33.1110   48.2840 N.am  230  ILE230     -0.1980
    120  CA        -7.1190   33.1880   48.7630 C.3   230  ILE230      0.1595
    121  C         -6.3990   34.4570   48.2960 C.2   230  ILE230      0.2287
    122  O         -5.6560   35.0750   49.0550 O.2   230  ILE230     -0.2864
    123  CB        -6.3210   31.9540   48.3030 C.3   230  ILE230      0.0276
    124  CG1       -6.9140   30.6940   48.9410 C.3   230  ILE230      0.0022
    125  CG2       -4.8490   32.1240   48.6500 C.3   230  ILE230      0.0022
    126  CD1       -6.3030   29.3990   48.4360 C.3   230  ILE230      0.0001
    127  N         -8.0510   37.4490   50.3000 N.3   233  VAL233     -0.1231
    128  CA        -7.9540   37.3910   51.7570 C.3   233  VAL233      0.1692
    129  C         -6.5480   37.1700   52.3110 C.2   233  VAL233      0.2591
    130  O         -6.1650   37.7890   53.3040 O.2   233  VAL233     -0.2718
    131  CB        -8.8750   36.2790   52.3280 C.3   233  VAL233      0.0266
    132  CG1       -8.6960   36.1690   53.8370 C.3   233  VAL233      0.0020
    133  CG2      -10.3290   36.5830   51.9930 C.3   233  VAL233      0.0020
    134  N         -5.7750   36.2960   51.6710 N.am  234  GLN234     -0.1979
    135  CA        -4.4340   35.9900   52.1580 C.3   234  GLN234      0.1601
    136  C         -3.3100   36.7450   51.4540 C.2   234  GLN234      0.2287
    137  O         -2.4340   37.3170   52.1030 O.2   234  GLN234     -0.2864
    138  CB        -4.1790   34.4830   52.0430 C.3   234  GLN234      0.0394
    139  CG        -5.2500   33.6060   52.6880 C.3   234  GLN234      0.0908
    140  CD        -5.4070   33.8610   54.1710 C.2   234  GLN234      0.2608
    141  OE1       -4.4970   34.3680   54.8260 O.2   234  GLN234     -0.2717
    142  NE2       -6.5640   33.4950   54.7160 N.am  234  GLN234     -0.0878
@<TRIPOS>BOND
     1    93    94    1
     2   100    99   ar
     3    98    99    1
     4    98    97    1
     5    99   101   ar
     6    94    97    1
     7    94    95    1
     8     1     2    1
     9    15    13    1
    10    95   102   am
    11    95    96    2
    12    13    14    1
    13    13    10    1
    14   102   103    1
    15     2     5    1
    16     2     3    1
    17     9    10    1
    18     9     3   am
    19     5     6    1
    20   104   103    1
    21   104   105    2
    22    10    11    1
    23   103   106    1
    24     3     4    2
    25    31    30    1
    26   106   107    1
    27   109   108    1
    28    11    12    2
    29   110   111    1
    30     6     8    1
    31     6     7    1
    32   107   108    1
    33    30    29    1
    34    29    28    1
    35   111   112    1
    36   111   114    1
    37   119   112   am
    38   119   120    1
    39   121   120    1
    40   121   122    2
    41   123   125    1
    42   123   120    1
    43   123   124    1
    44   126   124    1
    45   112   113    2
    46   114   115    1
    47    28    27    1
    48    16    17    1
    49    27    24    1
    50    23    24    1
    51    23    18   am
    52   115   116    1
    53    24    25    1
    54    22    20    1
    55   127   128    1
    56    17    20    1
    57    17    18    1
    58    20    21    1
    59    25    26    2
    60   117   116   ar
    61   116   118   ar
    62    87    86    2
    63    18    19    2
    64    79    78    2
    65    82    80    1
    66   136   137    2
    67   136   135    1
    68    86    85    1
    69   134   135    1
    70   134   129   am
    71   128   129    1
    72   128   131    1
    73    85    84    1
    74    85    88    1
    75   133   131    1
    76    78    84   am
    77    78    77    1
    78   138   135    1
    79   138   139    1
    80   129   130    2
    81   131   132    1
    82   139   140    1
    83    80    77    1
    84    80    81    1
    85    77    76    1
    86    88    89    1
    87    89    90    1
    88    91    90    2
    89    81    83    1
    90    90    92   am
    91    32    33    1
    92   140   142   am
    93   140   141    2
    94    38    37    1
    95    38    39    1
    96    36    37    1
    97    36    33    1
    98    40    39    1
    99    71    70    2
   100    33    34    1
   101    34    35    2
   102    70    69    1
   103    62    61    2
   104    51    49   ar
   105    51    50   ar
   106    69    72    1
   107    69    68    1
   108    49    47   ar
   109    50    48   ar
   110    72    73    1
   111    47    46   ar
   112    73    74    1
   113    48    46   ar
   114    46    45    1
   115    61    68   am
   116    61    60    1
   117    74    75    1
   118    45    42    1
   119    60    63    1
   120    60    59    1
   121    63    64    1
   122    42    41    1
   123    42    43    1
   124    66    65    2
   125    64    65    1
   126    65    67   am
   127    43    44    2
   128    55    54    2
   129    58    56    1
   130    54    53    1
   131    53    56    1
   132    53    52    1
   133    56    57    1
