@<TRIPOS>MOLECULE
tmp/1t84A00.pdb
 116 114 0 0 0
SMALL
GASTEIGER

@<TRIPOS>ATOM
      1  N          0.0070   13.8450  -10.2540 N.3     4  LYS4       -0.1245
      2  CA        -0.6200   15.1300   -9.9690 C.3     4  LYS4        0.1561
      3  C         -0.9440   15.2610   -8.4840 C.2     4  LYS4        0.2260
      4  O         -1.5490   14.3700   -7.8890 O.2     4  LYS4       -0.2867
      5  CB        -1.8960   15.2940  -10.7980 C.3     4  LYS4        0.0271
      6  CG        -2.2890   16.7440  -11.0290 C.3     4  LYS4        0.0035
      7  CD        -3.7850   16.9510  -10.8550 C.3     4  LYS4        0.0206
      8  CE        -4.5530   16.5330  -12.0970 C.3     4  LYS4        0.1093
      9  NZ        -4.4780   17.5620  -13.1710 N.3     4  LYS4       -0.1314
     10  N         -2.5590   16.1180   -4.9080 N.3     6  VAL6       -0.1245
     11  CA        -3.9400   15.9620   -4.4680 C.3     6  VAL6        0.1561
     12  C         -4.0830   16.2850   -2.9850 C.2     6  VAL6        0.2260
     13  O         -3.4420   15.6630   -2.1390 O.2     6  VAL6       -0.2867
     14  CB        -4.4560   14.5340   -4.7250 C.3     6  VAL6        0.0252
     15  CG1       -4.6910   14.3110   -6.2110 C.3     6  VAL6        0.0019
     16  CG2       -3.4840   13.5040   -4.1700 C.3     6  VAL6        0.0019
     17  N         -6.9270   16.0060   -1.4050 N.3     8  HIS8       -0.1226
     18  CA        -7.9500   15.1190   -0.8630 C.3     8  HIS8        0.1752
     19  C         -7.3640   13.7840   -0.4010 C.2     8  HIS8        0.2596
     20  O         -8.1050   12.8720   -0.0320 O.2     8  HIS8       -0.2718
     21  CB        -9.0330   14.8670   -1.9120 C.3     8  HIS8        0.0759
     22  CG        -8.5050   14.3110   -3.1980 C.ar    8  HIS8        0.0818
     23  ND1       -8.6990   14.9220   -4.4190 N.ar    8  HIS8       -0.2268
     24  CD2       -7.7860   13.1910   -3.4490 C.ar    8  HIS8        0.1154
     25  CE1       -8.1220   14.2020   -5.3660 C.ar    8  HIS8        0.1986
     26  NE2       -7.5620   13.1480   -4.8030 N.ar    8  HIS8       -0.2212
     27  N         -6.0390   13.6670   -0.4210 N.am    9  VAL9       -0.1966
     28  CA        -5.3790   12.4350    0.0020 C.3     9  VAL9        0.1727
     29  C         -5.2900   12.3560    1.5210 C.2     9  VAL9        0.2617
     30  O         -5.2700   13.3750    2.2100 O.2     9  VAL9       -0.2715
     31  CB        -3.9580   12.3130   -0.5920 C.3     9  VAL9        0.0290
     32  CG1       -3.1260   13.5370   -0.2430 C.3     9  VAL9        0.0023
     33  CG2       -3.2720   11.0410   -0.1030 C.3     9  VAL9        0.0023
     34  N         -5.2320   11.1320    2.0320 N.am   10  GLY10      -0.1940
     35  CA        -5.1160   10.9250    3.4580 C.3    10  GLY10       0.2014
     36  C         -3.6750   10.6970    3.8730 C.2    10  GLY10       0.2638
     37  O         -3.2640   11.0820    4.9680 O.2    10  GLY10      -0.2714
     38  N         -2.9040   10.0880    2.9760 N.am   11  TRP11      -0.1973
     39  CA        -1.4930    9.8130    3.2260 C.3    11  TRP11       0.1640
     40  C         -0.6300   11.0020    2.8040 C.2    11  TRP11       0.2290
     41  O         -0.9920   11.7560    1.9010 O.2    11  TRP11      -0.2864
     42  CB        -1.0720    8.5380    2.4760 C.3    11  TRP11       0.0576
     43  CG         0.4130    8.3640    2.3260 C.ar   11  TRP11       0.0006
     44  CD1        1.2140    7.5130    3.0320 C.ar   11  TRP11       0.0946
     45  CD2        1.2680    9.0460    1.4020 C.ar   11  TRP11       0.0152
     46  NE1        2.5150    7.6290    2.6080 N.ar   11  TRP11      -0.2442
     47  CE2        2.5750    8.5640    1.6080 C.ar   11  TRP11       0.0810
     48  CE3        1.0580   10.0210    0.4220 C.ar   11  TRP11       0.0012
     49  CZ2        3.6630    9.0230    0.8710 C.ar   11  TRP11       0.0191
     50  CZ3        2.1400   10.4760   -0.3090 C.ar   11  TRP11       0.0001
     51  CH2        3.4280    9.9770   -0.0810 C.ar   11  TRP11       0.0015
     52  N          1.6460    5.1230    7.3070 N.3    17  PHE17      -0.1241
     53  CA         0.4190    4.3530    7.4760 C.3    17  PHE17       0.1605
     54  C         -0.1400    4.5220    8.8840 C.2    17  PHE17       0.2264
     55  O          0.5770    4.3610    9.8710 O.2    17  PHE17      -0.2867
     56  CB         0.6830    2.8720    7.1960 C.3    17  PHE17       0.0534
     57  CG         0.4290    2.4740    5.7700 C.ar   17  PHE17      -0.0203
     58  CD1       -0.8350    2.0790    5.3620 C.ar   17  PHE17      -0.0042
     59  CD2        1.4550    2.4900    4.8390 C.ar   17  PHE17      -0.0042
     60  CE1       -1.0720    1.7100    4.0520 C.ar   17  PHE17      -0.0003
     61  CE2        1.2250    2.1220    3.5270 C.ar   17  PHE17      -0.0003
     62  CZ        -0.0400    1.7310    3.1330 C.ar   17  PHE17      -0.0000
     63  N          2.2090    3.1580   -1.0880 N.3    50  TYR50      -0.1241
     64  CA         1.2280    4.2050   -1.3430 C.3    50  TYR50       0.1605
     65  C          0.8450    4.2270   -2.8250 C.2    50  TYR50       0.2264
     66  O         -0.2340    4.6990   -3.1870 O.2    50  TYR50      -0.2867
     67  CB         1.7430    5.5820   -0.8340 C.3    50  TYR50       0.0534
     68  CG         1.8500    6.6800   -1.8800 C.ar   50  TYR50      -0.0201
     69  CD1        2.7620    6.5850   -2.9240 C.ar   50  TYR50      -0.0009
     70  CD2        1.0360    7.8070   -1.8200 C.ar   50  TYR50      -0.0009
     71  CE1        2.8620    7.5810   -3.8770 C.ar   50  TYR50       0.0417
     72  CE2        1.1320    8.8060   -2.7690 C.ar   50  TYR50       0.0417
     73  CZ         2.0450    8.6880   -3.7950 C.ar   50  TYR50       0.1957
     74  OH         2.1430    9.6820   -4.7410 O.3    50  TYR50      -0.2866
     75  N         -2.7550    2.4280   -2.8000 N.3    53  ILE53      -0.1231
     76  CA        -3.8900    3.2150   -2.3170 C.3    53  ILE53       0.1692
     77  C         -3.9780    4.5400   -3.0750 C.2    53  ILE53       0.2591
     78  O         -5.0290    5.1810   -3.1010 O.2    53  ILE53      -0.2718
     79  CB        -3.8930    3.4440   -0.7750 C.3    53  ILE53       0.0266
     80  CG1       -3.1090    2.3410   -0.0540 C.3    53  ILE53       0.0019
     81  CG2       -5.3310    3.4860   -0.2740 C.3    53  ILE53       0.0020
     82  CD1       -3.2070    2.4150    1.4530 C.3    53  ILE53       0.0001
     83  N         -2.8740    4.9320   -3.7150 N.am   54  GLU54      -0.1979
     84  CA        -2.8320    6.1660   -4.4910 C.3    54  GLU54       0.1602
     85  C         -3.3770    5.9450   -5.8980 C.2    54  GLU54       0.2287
     86  O         -4.2030    6.7160   -6.3860 O.2    54  GLU54      -0.2864
     87  CB        -1.3960    6.6900   -4.5710 C.3    54  GLU54       0.0415
     88  CG        -1.2780    8.0480   -5.2430 C.3    54  GLU54       0.1163
     89  CD        -0.6800    7.9600   -6.6330 C.2    54  GLU54       0.3649
     90  OE1        0.4630    7.4730   -6.7570 O.co2  54  GLU54      -0.2457
     91  OE2       -1.3550    8.3770   -7.5980 O.co2  54  GLU54      -0.2457
     92  N         -7.1490    4.8920   -6.6620 N.3    57  GLY57      -0.1210
     93  CA        -8.1300    5.9590   -6.7220 C.3    57  GLY57       0.1956
     94  C         -8.3340    6.6280   -5.3770 C.2    57  GLY57       0.2612
     95  O         -8.7890    7.7690   -5.3050 O.2    57  GLY57      -0.2717
     96  N         -7.9920    5.9150   -4.3090 N.am   58  GLY58      -0.1942
     97  CA        -8.1390    6.4590   -2.9730 C.3    58  GLY58       0.2014
     98  C         -8.5980    5.4220   -1.9690 C.2    58  GLY58       0.2639
     99  O         -9.4330    4.5760   -2.2780 O.2    58  GLY58      -0.2714
    100  N         -8.0520    5.4950   -0.7630 N.am   59  LEU59      -0.1963
    101  CA        -8.3890    4.5540    0.2990 C.3    59  LEU59       0.1728
    102  C         -9.8920    4.5440    0.5710 C.2    59  LEU59       0.2616
    103  O        -10.5410    3.5020    0.4850 O.2    59  LEU59      -0.2715
    104  CB        -7.6260    4.9710    1.5550 C.3    59  LEU59       0.0311
    105  CG        -8.2350    4.5610    2.8970 C.3    59  LEU59       0.0022
    106  CD1       -7.1430    4.3500    3.9350 C.3    59  LEU59       0.0001
    107  CD2       -9.2220    5.6210    3.3600 C.3    59  LEU59       0.0001
    108  N        -10.4450    5.7170    0.8650 N.am   60  GLU60      -0.1977
    109  CA       -11.8790    5.8410    1.0810 C.3    60  GLU60       0.1602
    110  C        -12.5860    5.6570   -0.2490 C.2    60  GLU60       0.2287
    111  O        -13.6790    5.0950   -0.3270 O.2    60  GLU60      -0.2864
    112  CB       -12.2230    7.2050    1.6850 C.3    60  GLU60       0.0415
    113  CG       -11.7420    8.3820    0.8490 C.3    60  GLU60       0.1163
    114  CD       -12.6840    9.5690    0.9160 C.2    60  GLU60       0.3649
    115  OE1      -13.0500    9.9740    2.0390 O.co2  60  GLU60      -0.2457
    116  OE2      -13.0540   10.0940   -0.1550 O.co2  60  GLU60      -0.2457
@<TRIPOS>BOND
     1     9     8    1
     2     8     7    1
     3     6     7    1
     4     6     5    1
     5     5     2    1
     6     1     2    1
     7     2     3    1
     8     3     4    2
     9    91    89   ar
    10    90    89   ar
    11    93    92    1
    12    93    94    1
    13    89    88    1
    14    86    85    2
    15    15    14    1
    16    85    84    1
    17    94    95    2
    18    94    96   am
    19    25    26   ar
    20    25    23   ar
    21    88    87    1
    22    10    11    1
    23    26    24   ar
    24    74    73    1
    25    14    11    1
    26    14    16    1
    27    87    84    1
    28    84    83    1
    29    11    12    1
    30    23    22   ar
    31    96    97    1
    32    71    73   ar
    33    71    69   ar
    34    73    72   ar
    35    83    77   am
    36    24    22   ar
    37    22    21    1
    38    66    65    2
    39    78    77    2
    40    77    76    1
    41    12    13    2
    42    97    98    1
    43    69    68   ar
    44    65    64    1
    45    75    76    1
    46    72    70   ar
    47    76    79    1
    48    99    98    2
    49    98   100   am
    50    21    18    1
    51    68    70   ar
    52    68    67    1
    53    17    18    1
    54    64    63    1
    55    64    67    1
    56    18    19    1
    57    79    81    1
    58    79    80    1
    59   100   101    1
    60    31    32    1
    61    31    33    1
    62    31    28    1
    63    27    19   am
    64    27    28    1
    65    19    20    2
    66   111   110    2
    67    50    51   ar
    68    50    48   ar
    69   110   109    1
    70   116   114   ar
    71    51    49   ar
    72    80    82    1
    73    28    29    1
    74   101   102    1
    75   101   104    1
    76    48    45   ar
    77   103   102    2
    78   102   108   am
    79   113   114    1
    80   113   112    1
    81   108   109    1
    82    49    47   ar
    83   114   115   ar
    84   109   112    1
    85    45    47   ar
    86    45    43   ar
    87    29    34   am
    88    29    30    2
    89   104   105    1
    90    47    46   ar
    91    41    40    2
    92    34    35    1
    93    43    42    1
    94    43    44   ar
    95    42    39    1
    96    46    44   ar
    97    40    39    1
    98   105   107    1
    99   105   106    1
   100    38    39    1
   101    38    36   am
   102    62    61   ar
   103    62    60   ar
   104    35    36    1
   105    61    59   ar
   106    36    37    2
   107    60    58   ar
   108    59    57   ar
   109    58    57   ar
   110    57    56    1
   111    56    53    1
   112    52    53    1
   113    53    54    1
   114    54    55    2
