@<TRIPOS>MOLECULE
tmp/1t8eC02.pdb
 119 115 0 0 0
SMALL
GASTEIGER

@<TRIPOS>ATOM
      1  N         81.5890   23.0230    5.6950 N.3     6  ILE6       -0.1231
      2  CA        82.6480   23.8240    5.0930 C.3     6  ILE6        0.1692
      3  C         82.5010   25.3030    5.4280 C.2     6  ILE6        0.2592
      4  O         81.4590   25.7450    5.9170 O.2     6  ILE6       -0.2718
      5  CB        82.6710   23.6930    3.5360 C.3     6  ILE6        0.0266
      6  CG1       81.5220   24.4940    2.9200 C.3     6  ILE6        0.0019
      7  CG2       82.5430   22.2330    3.1180 C.3     6  ILE6        0.0020
      8  CD1       81.6990   24.7500    1.4310 C.3     6  ILE6        0.0001
      9  N         83.5570   26.0620    5.1580 N.am    7  GLU7       -0.1966
     10  CA        83.5540   27.5020    5.3930 C.3     7  GLU7        0.1733
     11  C         84.0370   28.1240    4.0940 C.2     7  GLU7        0.2616
     12  O         85.1090   27.7700    3.5880 O.2     7  GLU7       -0.2715
     13  CB        84.5080   27.8700    6.5270 C.3     7  GLU7        0.0429
     14  CG        84.1930   27.1920    7.8490 C.3     7  GLU7        0.1163
     15  CD        83.0200   27.8140    8.5810 C.2     7  GLU7        0.3649
     16  OE1       82.2980   28.6480    7.9960 O.co2   7  GLU7       -0.2457
     17  OE2       82.8160   27.4580    9.7550 O.co2   7  GLU7       -0.2457
     18  N         83.2340   29.0320    3.5450 N.am    8  ALA8       -0.1963
     19  CA        83.5710   29.6870    2.2940 C.3     8  ALA8        0.1728
     20  C         83.4240   31.2060    2.4080 C.2     8  ALA8        0.2616
     21  O         82.9990   31.7130    3.4440 O.2     8  ALA8       -0.2715
     22  CB        82.6930   29.1380    1.1730 C.3     8  ALA8        0.0334
     23  N         83.7570   31.9210    1.3340 N.am    9  ASN9       -0.1958
     24  CA        83.7190   33.3830    1.3280 C.3     9  ASN9        0.1819
     25  C         82.3900   34.0860    1.0830 C.2     9  ASN9        0.2621
     26  O         82.3370   35.3160    1.1320 O.2     9  ASN9       -0.2715
     27  CB        84.7390   33.9140    0.3200 C.3     9  ASN9        0.1195
     28  CG        84.2850   33.7470   -1.1250 C.2     9  ASN9        0.2630
     29  OD1       83.4970   32.8590   -1.4500 O.2     9  ASN9       -0.2716
     30  ND2       84.8030   34.5980   -2.0030 N.am    9  ASN9       -0.0877
     31  N         81.3120   33.3420    0.8450 N.am   10  ALA10      -0.1963
     32  CA        80.0370   34.0010    0.5850 C.3    10  ALA10       0.1728
     33  C         78.8830   33.0210    0.4380 C.2    10  ALA10       0.2616
     34  O         79.0990   31.8140    0.3600 O.2    10  ALA10      -0.2715
     35  CB        80.1560   34.8520   -0.6920 C.3    10  ALA10       0.0334
     36  N         77.6580   33.5410    0.4030 N.am   11  LEU11      -0.1977
     37  CA        76.4940   32.6870    0.2130 C.3    11  LEU11       0.1596
     38  C         76.6030   32.0730   -1.1920 C.2    11  LEU11       0.2287
     39  O         77.3740   32.5390   -2.0350 O.2    11  LEU11      -0.2864
     40  CB        75.1910   33.4920    0.3530 C.3    11  LEU11       0.0297
     41  CG        74.8170   33.9740    1.7650 C.3    11  LEU11       0.0022
     42  CD1       73.5070   34.7460    1.7090 C.3    11  LEU11       0.0001
     43  CD2       74.6990   32.7930    2.7220 C.3    11  LEU11       0.0001
     44  N         72.1960   21.5520    6.6530 N.3    60  ASN60      -0.1240
     45  CA        71.8170   22.5140    5.6160 C.3    60  ASN60       0.1653
     46  C         72.7030   22.3130    4.3920 C.2    60  ASN60       0.2266
     47  O         72.8200   23.1910    3.5430 O.2    60  ASN60      -0.2867
     48  CB        71.9340   23.9570    6.1240 C.3    60  ASN60       0.1155
     49  CG        71.3090   24.9740    5.1690 C.2    60  ASN60       0.2627
     50  OD1       70.2310   24.7450    4.6070 O.2    60  ASN60      -0.2716
     51  ND2       71.9740   26.1090    4.9980 N.am   60  ASN60      -0.0877
     52  N         73.0600   24.5180    0.8130 N.3    64  TYR64      -0.1241
     53  CA        74.3390   25.1960    0.6990 C.3    64  TYR64       0.1605
     54  C         75.5940   24.3720    0.3670 C.2    64  TYR64       0.2264
     55  O         76.0340   24.3560   -0.7800 O.2    64  TYR64      -0.2867
     56  CB        74.5930   26.0050    1.9680 C.3    64  TYR64       0.0534
     57  CG        75.8640   26.8040    1.8980 C.ar   64  TYR64      -0.0201
     58  CD1       75.9670   27.9040    1.0390 C.ar   64  TYR64      -0.0009
     59  CD2       76.9890   26.4210    2.6350 C.ar   64  TYR64      -0.0009
     60  CE1       77.1510   28.6020    0.9090 C.ar   64  TYR64       0.0417
     61  CE2       78.1900   27.1170    2.5120 C.ar   64  TYR64       0.0417
     62  CZ        78.2620   28.2110    1.6490 C.ar   64  TYR64       0.1957
     63  OH        79.4250   28.9490    1.5790 O.3    64  TYR64      -0.2866
     64  N         68.6990   29.1500    9.7310 N.3   107  MET107     -0.1245
     65  CA        70.1460   29.2980    9.6870 C.3   107  MET107      0.1570
     66  C         70.6700   30.7120    9.9100 C.2   107  MET107      0.2261
     67  O         71.6890   31.0970    9.3410 O.2   107  MET107     -0.2867
     68  CB        70.6800   28.7450    8.3660 C.3   107  MET107      0.0387
     69  CG        70.8540   27.2480    8.3920 C.3   107  MET107      0.0595
     70  SD        71.8960   26.7810    9.7980 S.3   107  MET107     -0.1393
     71  CE        73.5480   27.1590    9.1380 C.3   107  MET107      0.0692
     72  N         68.8320   33.6400    9.3850 N.3   109  LEU109     -0.1245
     73  CA        68.1770   34.6620    8.5750 C.3   109  LEU109      0.1561
     74  C         67.0940   35.3610    9.3760 C.2   109  LEU109      0.2260
     75  O         66.8370   36.5470    9.1940 O.2   109  LEU109     -0.2867
     76  CB        67.5720   34.0430    7.3160 C.3   109  LEU109      0.0270
     77  CG        68.5980   33.4880    6.3300 C.3   109  LEU109      0.0019
     78  CD1       67.9000   33.1140    5.0350 C.3   109  LEU109      0.0001
     79  CD2       69.6720   34.5390    6.0650 C.3   109  LEU109      0.0001
     80  N         76.2410   30.5110   14.5830 N.3   129  MET129     -0.1230
     81  CA        77.6870   30.4560   14.3840 C.3   129  MET129      0.1702
     82  C         78.2340   31.5800   13.5110 C.2   129  MET129      0.2592
     83  O         79.2910   32.1280   13.8030 O.2   129  MET129     -0.2718
     84  CB        78.0890   29.1010   13.7890 C.3   129  MET129      0.0401
     85  CG        79.5650   28.9780   13.3440 C.3   129  MET129      0.0596
     86  SD        80.0250   29.7550   11.7300 S.3   129  MET129     -0.1393
     87  CE        78.7050   29.1200   10.6430 C.3   129  MET129      0.0692
     88  N         77.5350   31.9270   12.4380 N.am  130  LYS130     -0.1980
     89  CA        78.0410   32.9880   11.5840 C.3   130  LYS130      0.1596
     90  C         78.0290   34.3290   12.3080 C.2   130  LYS130      0.2287
     91  O         78.8750   35.1940   12.0540 O.2   130  LYS130     -0.2864
     92  CB        77.2430   33.0640   10.2820 C.3   130  LYS130      0.0298
     93  CG        77.6460   31.9790    9.2870 C.3   130  LYS130      0.0038
     94  CD        76.8440   32.0400    7.9930 C.3   130  LYS130      0.0206
     95  CE        76.9470   33.4040    7.3290 C.3   130  LYS130      0.1093
     96  NZ        76.1190   33.4540    6.0950 N.3   130  LYS130     -0.1314
     97  N         84.8960   39.5830    7.7120 N.3   153  GLU153     -0.1231
     98  CA        85.0990   38.3350    8.4360 C.3   153  GLU153      0.1699
     99  C         85.2320   37.1300    7.5090 C.2   153  GLU153      0.2592
    100  O         85.8950   36.1570    7.8440 O.2   153  GLU153     -0.2718
    101  CB        83.9320   38.1040    9.3910 C.3   153  GLU153      0.0402
    102  CG        82.6380   37.8110    8.6620 C.3   153  GLU153      0.1161
    103  CD        81.4530   38.6150    9.1720 C.2   153  GLU153      0.3649
    104  OE1       81.5620   39.8560    9.2340 O.co2 153  GLU153     -0.2457
    105  OE2       80.4090   38.0050    9.4950 O.co2 153  GLU153     -0.2457
    106  N         84.6110   37.2000    6.3380 N.am  154  TRP154     -0.1976
    107  CA        84.6460   36.0820    5.3980 C.3   154  TRP154      0.1640
    108  C         85.5880   36.2230    4.2160 C.2   154  TRP154      0.2290
    109  O         85.7270   35.2830    3.4300 O.2   154  TRP154     -0.2864
    110  CB        83.2420   35.8100    4.8560 C.3   154  TRP154      0.0576
    111  CG        82.2670   35.4670    5.9170 C.ar  154  TRP154      0.0006
    112  CD1       81.2750   36.2610    6.4140 C.ar  154  TRP154      0.0946
    113  CD2       82.2140   34.2460    6.6530 C.ar  154  TRP154      0.0152
    114  NE1       80.6080   35.6070    7.4210 N.ar  154  TRP154     -0.2442
    115  CE2       81.1650   34.3660    7.5880 C.ar  154  TRP154      0.0810
    116  CE3       82.9540   33.0590    6.6150 C.ar  154  TRP154      0.0012
    117  CZ2       80.8360   33.3430    8.4780 C.ar  154  TRP154      0.0191
    118  CZ3       82.6260   32.0400    7.5030 C.ar  154  TRP154      0.0001
    119  CH2       81.5750   32.1910    8.4210 C.ar  154  TRP154      0.0015
@<TRIPOS>BOND
     1    39    38    2
     2    30    28   am
     3    29    28    2
     4    38    37    1
     5    28    27    1
     6    55    54    2
     7    35    32    1
     8    37    40    1
     9    37    36    1
    10    27    24    1
    11    40    41    1
    12    34    33    2
    13    54    53    1
    14    36    33   am
    15    33    32    1
    16    32    31    1
    17    53    52    1
    18    53    56    1
    19    31    25   am
    20    60    58   ar
    21    60    62   ar
    22    58    57   ar
    23    25    26    2
    24    25    24    1
    25    22    19    1
    26    24    23    1
    27    23    20   am
    28     8     6    1
    29    63    62    1
    30    62    61   ar
    31    42    41    1
    32    41    43    1
    33    57    56    1
    34    57    59   ar
    35    19    20    1
    36    19    18    1
    37    20    21    2
    38    61    59   ar
    39     6     5    1
    40     7     5    1
    41   109   108    2
    42     5     2    1
    43    47    46    2
    44    18    11   am
    45    12    11    2
    46    11    10    1
    47   108   107    1
    48    46    45    1
    49    50    49    2
    50   110   107    1
    51   110   111    1
    52    51    49   am
    53    78    77    1
    54     2     3    1
    55     2     1    1
    56     9    10    1
    57     9     3   am
    58    49    48    1
    59    10    13    1
    60   107   106    1
    61     3     4    2
    62    45    48    1
    63    45    44    1
    64   111   112   ar
    65   111   113   ar
    66    79    77    1
    67    96    95    1
    68    77    76    1
    69   106    99   am
    70   112   114   ar
    71    13    14    1
    72   116   113   ar
    73   116   118   ar
    74   113   115   ar
    75    76    73    1
    76    95    94    1
    77   114   115   ar
    78   118   119   ar
    79    99   100    2
    80    99    98    1
    81   115   117   ar
    82    97    98    1
    83    14    15    1
    84    94    93    1
    85    16    15   ar
    86    68    69    1
    87    68    65    1
    88    69    70    1
    89   119   117   ar
    90    98   101    1
    91    73    74    1
    92    73    72    1
    93    15    17   ar
    94   102   103    1
    95   102   101    1
    96    71    70    1
    97   103   104   ar
    98   103   105   ar
    99    75    74    2
   100    93    92    1
   101    67    66    2
   102    65    64    1
   103    65    66    1
   104    92    89    1
   105    87    86    1
   106    89    90    1
   107    89    88    1
   108    86    85    1
   109    91    90    2
   110    88    82   am
   111    85    84    1
   112    82    83    2
   113    82    81    1
   114    84    81    1
   115    81    80    1
