@<TRIPOS>MOLECULE
tmp/1t8iD00.pdb
 90 82 0 0 0
SMALL
GASTEIGER

@<TRIPOS>ATOM
      1  N         29.6480  -12.0060   29.0870 N.3   152  ASN152     -0.1240
      2  CA        28.4140  -12.7040   29.4680 C.3   152  ASN152      0.1653
      3  C         28.4540  -14.1330   28.9090 C.2   152  ASN152      0.2266
      4  O         27.5940  -14.5180   28.0870 O.2   152  ASN152     -0.2867
      5  CB        27.2250  -11.9760   28.8110 C.3   152  ASN152      0.1155
      6  CG        26.7010  -10.7610   29.6020 C.2   152  ASN152      0.2627
      7  OD1       25.4730  -10.5930   29.7270 O.2   152  ASN152     -0.2716
      8  ND2       27.5910   -9.8790   30.0490 N.am  152  ASN152     -0.0877
      9  N         21.6840  -16.8550   27.6540 N.3   156  GLU156     -0.1245
     10  CA        20.4030  -16.4590   28.2170 C.3   156  GLU156      0.1567
     11  C         19.3240  -17.5440   28.1510 C.2   156  GLU156      0.2260
     12  O         19.1580  -18.1790   27.1420 O.2   156  GLU156     -0.2867
     13  CB        19.9650  -15.1580   27.5090 C.3   156  GLU156      0.0388
     14  CG        19.2400  -14.0870   28.4020 C.3   156  GLU156      0.1160
     15  CD        20.0770  -13.5990   29.6280 C.2   156  GLU156      0.3649
     16  OE1       19.9110  -14.1770   30.7370 O.co2 156  GLU156     -0.2457
     17  OE2       20.8660  -12.6250   29.4840 O.co2 156  GLU156     -0.2457
     18  N         10.9840   -3.5080   25.6710 N.3   164  ARG164     -0.1245
     19  CA        10.6580   -2.2410   26.3110 C.3   164  ARG164      0.1563
     20  C          9.6360   -1.5130   25.4670 C.2   164  ARG164      0.2260
     21  O          9.5490   -1.7120   24.2550 O.2   164  ARG164     -0.2867
     22  CB        11.9000   -1.3770   26.5320 C.3   164  ARG164      0.0307
     23  CG        13.2610   -2.1020   26.4600 C.3   164  ARG164      0.0489
     24  CD        14.3580   -1.2000   26.9800 C.3   164  ARG164      0.2205
     25  NE        15.6940   -1.7640   26.8200 N.pl3 164  ARG164     -0.0865
     26  CZ        16.2710   -2.6370   27.6610 C.cat 164  ARG164      0.5346
     27  NH1       15.6320   -3.0840   28.7670 N.pl3 164  ARG164      0.1354
     28  NH2       17.5260   -3.0360   27.4190 N.pl3 164  ARG164      0.1354
     29  N         23.0040  -12.5010   18.3270 N.3   225  LYS225     -0.1245
     30  CA        23.5350  -12.2490   19.6710 C.3   225  LYS225      0.1561
     31  C         24.9920  -12.6980   19.6800 C.2   225  LYS225      0.2260
     32  O         25.3840  -13.4910   18.8080 O.2   225  LYS225     -0.2867
     33  CB        22.7560  -12.9950   20.7400 C.3   225  LYS225      0.0271
     34  CG        21.2910  -12.5900   20.8800 C.3   225  LYS225      0.0035
     35  CD        21.1040  -11.1550   21.2870 C.3   225  LYS225      0.0206
     36  CE        19.6550  -10.8400   21.6220 C.3   225  LYS225      0.1093
     37  NZ        19.5460   -9.4130   22.0950 N.3   225  LYS225     -0.1314
     38  N         19.5030   11.7020   18.7920 N.3   288  ARG288     -0.1245
     39  CA        20.1980   10.5940   18.1790 C.3   288  ARG288      0.1563
     40  C         19.9150   10.6880   16.6670 C.2   288  ARG288      0.2260
     41  O         18.9440   11.3240   16.2540 O.2   288  ARG288     -0.2867
     42  CB        19.6210    9.2930   18.7270 C.3   288  ARG288      0.0307
     43  CG        19.9270    9.0280   20.1770 C.3   288  ARG288      0.0489
     44  CD        19.2520    7.7670   20.6530 C.3   288  ARG288      0.2205
     45  NE        19.8320    7.2420   21.8840 N.pl3 288  ARG288     -0.0865
     46  CZ        19.5700    7.6840   23.1100 C.cat 288  ARG288      0.5346
     47  NH1       18.7400    8.6910   23.3040 N.pl3 288  ARG288      0.1354
     48  NH2       20.0490    7.0310   24.1640 N.pl3 288  ARG288      0.1354
     49  N         14.7020    6.5120   22.2570 N.3   332  LYS332     -0.1231
     50  CA        15.2010    5.1380   22.3860 C.3   332  LYS332      0.1693
     51  C         14.6230    4.5970   23.6770 C.2   332  LYS332      0.2592
     52  O         14.4850    5.3510   24.6480 O.2   332  LYS332     -0.2718
     53  CB        16.7340    5.0850   22.4490 C.3   332  LYS332      0.0285
     54  CG        17.3220    3.6470   22.4510 C.3   332  LYS332      0.0035
     55  CD        18.8480    3.5920   22.6080 C.3   332  LYS332      0.0206
     56  CE        19.2990    2.1910   23.0690 C.3   332  LYS332      0.1093
     57  NZ        20.6610    1.8110   22.5800 N.3   332  LYS332     -0.1314
     58  N         14.2350    3.3120   23.6600 N.am  333  ASP333     -0.1974
     59  CA        13.6390    2.6080   24.8210 C.3   333  ASP333      0.1709
     60  C         12.3050    3.2180   25.2590 C.2   333  ASP333      0.2293
     61  O         11.9870    3.2450   26.4500 O.2   333  ASP333     -0.2864
     62  CB        14.6190    2.6000   26.0100 C.3   333  ASP333      0.1436
     63  CG        15.9950    2.0860   25.6310 C.2   333  ASP333      0.3671
     64  OD1       16.0620    1.0940   24.8720 O.co2 333  ASP333     -0.2456
     65  OD2       17.0070    2.6920   26.0550 O.co2 333  ASP333     -0.2456
     66  N         18.7010   10.9090   29.8710 N.3   432  HIS432     -0.1241
     67  CA        18.7330    9.5910   30.5160 C.3   432  HIS432      0.1621
     68  C         17.8320    9.6320   31.7340 C.2   432  HIS432      0.2264
     69  O         18.2860    9.7800   32.8730 O.2   432  HIS432     -0.2867
     70  CB        20.1570    9.1910   30.8990 C.3   432  HIS432      0.0745
     71  CG        21.0420    8.9300   29.7290 C.ar  432  HIS432      0.0817
     72  ND1       22.3960    9.1470   29.7770 N.ar  432  HIS432     -0.2268
     73  CD2       20.7650    8.5290   28.4660 C.ar  432  HIS432      0.1154
     74  CE1       22.9140    8.9060   28.5880 C.ar  432  HIS432      0.1986
     75  NE2       21.9470    8.5280   27.7740 N.ar  432  HIS432     -0.2212
     76  N         24.3770    5.4310   32.1700 N.3   518  THR518     -0.1218
     77  CA        24.6400    5.4150   30.7340 C.3   518  THR518      0.1862
     78  C         25.6750    6.4630   30.3090 C.2   518  THR518      0.2287
     79  O         26.4980    6.1950   29.4490 O.2   518  THR518     -0.2866
     80  CB        23.2940    5.4100   29.8970 C.3   518  THR518      0.1770
     81  OG1       22.5360    4.2190   30.1980 O.3   518  THR518     -0.2211
     82  CG2       23.5670    5.4090   28.3840 C.3   518  THR518      0.0375
     83  N         29.1240    4.9430   29.3240 N.3   522  ASN522     -0.1240
     84  CA        29.1280    5.1280   27.8920 C.3   522  ASN522      0.1653
     85  C         29.5000    6.4560   27.2180 C.2   522  ASN522      0.2266
     86  O         30.0370    6.4220   26.1060 O.2   522  ASN522     -0.2867
     87  CB        27.8210    4.5920   27.3230 C.3   522  ASN522      0.1155
     88  CG        27.6890    3.1020   27.5020 C.2   522  ASN522      0.2627
     89  OD1       26.8410    2.6160   28.2770 O.2   522  ASN522     -0.2716
     90  ND2       28.5330    2.3480   26.7810 N.am  522  ASN522     -0.0877
@<TRIPOS>BOND
     1    41    40    2
     2    40    39    1
     3    39    42    1
     4    39    38    1
     5    29    30    1
     6    42    43    1
     7    32    31    2
     8    30    31    1
     9    30    33    1
    10    43    44    1
    11    44    45    1
    12    33    34    1
    13    34    35    1
    14    35    36    1
    15    36    37    1
    16    45    46    2
    17    49    50    1
    18    50    53    1
    19    50    51    1
    20    53    54    1
    21    54    55    1
    22    57    56    1
    23    55    56    1
    24    46    47    1
    25    46    48    1
    26    58    51   am
    27    58    59    1
    28    51    52    2
    29    21    20    2
    30    59    60    1
    31    59    62    1
    32    64    63   ar
    33    60    61    2
    34    20    19    1
    35    63    62    1
    36    63    65   ar
    37    18    19    1
    38    86    85    2
    39    19    22    1
    40    23    22    1
    41    23    24    1
    42    90    88   am
    43    25    24    1
    44    25    26    2
    45    12    11    2
    46    85    84    1
    47    87    88    1
    48    87    84    1
    49    28    26    1
    50    88    89    2
    51    13    10    1
    52    13    14    1
    53     9    10    1
    54    26    27    1
    55    75    73   ar
    56    75    74   ar
    57    84    83    1
    58     4     3    2
    59    11    10    1
    60    82    80    1
    61    14    15    1
    62    73    71   ar
    63    74    72   ar
    64     5     2    1
    65     5     6    1
    66     3     2    1
    67     1     2    1
    68    79    78    2
    69    17    15   ar
    70     6     7    2
    71     6     8   am
    72    15    16   ar
    73    71    72   ar
    74    71    70    1
    75    66    67    1
    76    80    81    1
    77    80    77    1
    78    78    77    1
    79    67    70    1
    80    67    68    1
    81    77    76    1
    82    68    69    2
