@<TRIPOS>MOLECULE
tmp/1t8sB00.pdb
 131 124 0 0 0
SMALL
GASTEIGER

@<TRIPOS>ATOM
      1  N        197.6900  148.7280   98.9890 N.3   173  ASN173     -0.1240
      2  CA       196.8630  147.8600   99.7810 C.3   173  ASN173      0.1653
      3  C        197.2850  147.9620  101.2330 C.2   173  ASN173      0.2266
      4  O        196.9650  147.0850  102.0360 O.2   173  ASN173     -0.2867
      5  CB       197.0170  146.4180   99.2890 C.3   173  ASN173      0.1155
      6  CG       198.4800  145.9490   99.2600 C.2   173  ASN173      0.2627
      7  OD1      199.4000  146.7070   99.5800 O.2   173  ASN173     -0.2716
      8  ND2      198.6920  144.6910   98.8720 N.am  173  ASN173     -0.0877
      9  N        191.5880  145.3980  100.0180 N.3   247  VAL247     -0.1245
     10  CA       192.0180  144.0500   99.6880 C.3   247  VAL247      0.1561
     11  C        191.0720  143.1670   98.8980 C.2   247  VAL247      0.2260
     12  O        189.8640  143.1270   99.1590 O.2   247  VAL247     -0.2867
     13  CB       192.4420  143.3080  100.9950 C.3   247  VAL247      0.0252
     14  CG1      191.4950  143.6710  102.1060 C.3   247  VAL247      0.0019
     15  CG2      192.4470  141.7990  100.8000 C.3   247  VAL247      0.0019
     16  N        202.1130  145.5900   99.5050 N.3   271  HIS271     -0.1226
     17  CA       202.7330  144.4390  100.1400 C.3   271  HIS271      0.1752
     18  C        202.3950  143.1460   99.4150 C.2   271  HIS271      0.2596
     19  O        201.4220  143.0830   98.6710 O.2   271  HIS271     -0.2718
     20  CB       202.2800  144.3400  101.5960 C.3   271  HIS271      0.0759
     21  CG       202.8560  145.4040  102.4780 C.ar  271  HIS271      0.0818
     22  ND1      202.5580  145.5010  103.8230 N.ar  271  HIS271     -0.2268
     23  CD2      203.7420  146.3970  102.2160 C.ar  271  HIS271      0.1154
     24  CE1      203.2400  146.5050  104.3490 C.ar  271  HIS271      0.1986
     25  NE2      203.9660  147.0650  103.3960 N.ar  271  HIS271     -0.2212
     26  N        203.2240  142.1300   99.6480 N.am  272  CYS272     -0.1956
     27  CA       203.0660  140.8010   99.0620 C.3   272  CYS272      0.1843
     28  C        203.8280  139.8100   99.9240 C.2   272  CYS272      0.2626
     29  O        204.6290  140.1990  100.7650 O.2   272  CYS272     -0.2714
     30  CB       203.6560  140.7520   97.6600 C.3   272  CYS272      0.0997
     31  SG       205.4820  140.8600   97.6440 S.3   272  CYS272     -0.0797
     32  N        203.5690  138.5270   99.7150 N.am  273  GLY273     -0.1954
     33  CA       204.2800  137.5060  100.4550 C.3   273  GLY273      0.1869
     34  C        205.4180  137.0410   99.5670 C.2   273  GLY273      0.2309
     35  O        205.2260  136.8780   98.3580 O.2   273  GLY273     -0.2863
     36  N        196.0030  135.7970   94.0090 N.3   344  THR344     -0.1218
     37  CA       194.9400  134.8620   94.3650 C.3   344  THR344      0.1862
     38  C        193.7650  135.5660   95.0360 C.2   344  THR344      0.2287
     39  O        193.8930  136.6930   95.5060 O.2   344  THR344     -0.2866
     40  CB       195.4530  133.7950   95.3310 C.3   344  THR344      0.1770
     41  OG1      194.3760  132.9090   95.6580 O.3   344  THR344     -0.2211
     42  CG2      195.9630  134.4400   96.6300 C.3   344  THR344      0.0375
     43  N        193.1110  134.4940  100.4260 N.3   347  ARG347     -0.1245
     44  CA       194.0990  134.9220  101.4040 C.3   347  ARG347      0.1563
     45  C        194.7010  133.7480  102.1720 C.2   347  ARG347      0.2260
     46  O        195.9060  133.7150  102.4590 O.2   347  ARG347     -0.2867
     47  CB       193.4720  135.8700  102.4290 C.3   347  ARG347      0.0307
     48  CG       194.4530  136.3180  103.5350 C.3   347  ARG347      0.0489
     49  CD       195.5480  137.2070  102.9230 C.3   347  ARG347      0.2205
     50  NE       196.6230  137.5670  103.8490 N.pl3 347  ARG347     -0.0865
     51  CZ       197.6420  136.7720  104.2070 C.cat 347  ARG347      0.5346
     52  NH1      197.7550  135.5290  103.7250 N.pl3 347  ARG347      0.1354
     53  NH2      198.5800  137.2350  105.0420 N.pl3 347  ARG347      0.1354
     54  N        195.4210  130.7800  101.2750 N.3   349  TRP349     -0.1227
     55  CA       195.9420  129.7420  100.4100 C.3   349  TRP349      0.1737
     56  C        196.9040  128.8090  101.1490 C.2   349  TRP349      0.2595
     57  O        197.0210  127.6410  100.8000 O.2   349  TRP349     -0.2718
     58  CB       196.6450  130.3670   99.2130 C.3   349  TRP349      0.0564
     59  CG       197.7540  131.2810   99.5920 C.ar  349  TRP349      0.0003
     60  CD1      197.6800  132.6380   99.7900 C.ar  349  TRP349      0.0946
     61  CD2      199.1140  130.9180   99.8110 C.ar  349  TRP349      0.0152
     62  NE1      198.9180  133.1370  100.1060 N.ar  349  TRP349     -0.2442
     63  CE2      199.8180  132.1050  100.1270 C.ar  349  TRP349      0.0810
     64  CE3      199.8110  129.7050   99.7710 C.ar  349  TRP349      0.0012
     65  CZ2      201.1840  132.1130  100.3970 C.ar  349  TRP349      0.0191
     66  CZ3      201.1730  129.7130  100.0420 C.ar  349  TRP349      0.0001
     67  CH2      201.8450  130.9100  100.3500 C.ar  349  TRP349      0.0015
     68  N        197.5880  129.3200  102.1680 N.am  350  GLU350     -0.1979
     69  CA       198.5230  128.5110  102.9540 C.3   350  GLU350      0.1602
     70  C        197.8440  127.2850  103.5440 C.2   350  GLU350      0.2287
     71  O        198.4880  126.2630  103.7850 O.2   350  GLU350     -0.2864
     72  CB       199.1250  129.3200  104.1080 C.3   350  GLU350      0.0415
     73  CG       199.9510  130.5420  103.6830 C.3   350  GLU350      0.1163
     74  CD       199.1470  131.8530  103.6680 C.2   350  GLU350      0.3649
     75  OE1      197.9510  131.8110  103.2690 O.co2 350  GLU350     -0.2457
     76  OE2      199.7220  132.9180  104.0390 O.co2 350  GLU350     -0.2457
     77  N        203.3680  136.4910   96.0510 N.3   368  ILE368     -0.1231
     78  CA       201.9330  136.2720   95.9760 C.3   368  ILE368      0.1692
     79  C        201.1910  137.4070   96.6510 C.2   368  ILE368      0.2592
     80  O        201.5430  137.8230   97.7440 O.2   368  ILE368     -0.2718
     81  CB       201.5340  134.9580   96.6480 C.3   368  ILE368      0.0266
     82  CG1      200.0290  134.7200   96.4640 C.3   368  ILE368      0.0019
     83  CG2      201.9530  134.9850   98.1340 C.3   368  ILE368      0.0020
     84  CD1      199.5730  133.2840   96.8030 C.3   368  ILE368      0.0001
     85  N        200.1700  137.9200   95.9810 N.am  369  ASP369     -0.1974
     86  CA       199.3690  139.0030   96.5240 C.3   369  ASP369      0.1709
     87  C        197.9220  138.7930   96.0780 C.2   369  ASP369      0.2293
     88  O        197.5800  137.7320   95.5550 O.2   369  ASP369     -0.2864
     89  CB       199.9080  140.3640   96.0520 C.3   369  ASP369      0.1436
     90  CG       199.3970  140.7590   94.6680 C.2   369  ASP369      0.3671
     91  OD1      199.3810  139.9060   93.7560 O.co2 369  ASP369     -0.2456
     92  OD2      199.0110  141.9400   94.4860 O.co2 369  ASP369     -0.2456
     93  N        196.0170  141.6000   94.4360 N.3   370  GLU370     -0.1245
     94  CA       195.5380  142.6960   93.5830 C.3   370  GLU370      0.1567
     95  C        196.3040  142.9340   92.2770 C.2   370  GLU370      0.2260
     96  O        195.7180  143.3850   91.2910 O.2   370  GLU370     -0.2867
     97  CB       195.5150  144.0330   94.3610 C.3   370  GLU370      0.0388
     98  CG       194.5660  144.1200   95.5550 C.3   370  GLU370      0.1160
     99  CD       195.1620  143.5020   96.8060 C.2   370  GLU370      0.3649
    100  OE1      196.4040  143.4280   96.8850 O.co2 370  GLU370     -0.2457
    101  OE2      194.4080  143.0990   97.7160 O.co2 370  GLU370     -0.2457
    102  N        206.3880  141.5760  102.6480 N.3   392  SER392     -0.1202
    103  CA       205.9930  141.8880  104.0160 C.3   392  SER392      0.2020
    104  C        205.9680  140.6470  104.8740 C.2   392  SER392      0.2618
    105  O        205.7560  140.7180  106.0780 O.2   392  SER392     -0.2717
    106  CB       204.6070  142.5210  104.0450 C.3   392  SER392      0.2103
    107  OG       203.6460  141.5830  103.5960 O.3   392  SER392     -0.2182
    108  N        206.1620  139.4980  104.2480 N.am  393  ASP393     -0.1973
    109  CA       206.1760  138.2510  104.9920 C.3   393  ASP393      0.1709
    110  C        206.7130  137.1220  104.1320 C.2   393  ASP393      0.2293
    111  O        206.8640  137.2710  102.9260 O.2   393  ASP393     -0.2864
    112  CB       204.7680  137.9200  105.5040 C.3   393  ASP393      0.1436
    113  CG       203.7410  137.7700  104.3800 C.2   393  ASP393      0.3671
    114  OD1      203.4040  138.7780  103.7160 O.co2 393  ASP393     -0.2456
    115  OD2      203.2680  136.6300  104.1700 O.co2 393  ASP393     -0.2456
    116  N        205.5710  133.3960  104.0790 N.3   395  PRO395     -0.2116
    117  CA       204.6160  132.3270  104.3970 C.3   395  PRO395      0.1372
    118  C        205.1900  130.9260  104.3560 C.2   395  PRO395      0.2244
    119  O        204.8310  130.0760  105.1600 O.2   395  PRO395     -0.2868
    120  CB       203.5360  132.4990  103.3400 C.3   395  PRO395      0.0268
    121  CG       203.7150  133.8990  102.8510 C.3   395  PRO395      0.0207
    122  CD       205.1730  134.0900  102.8430 C.3   395  PRO395      0.0892
    123  N        202.7930  136.7100  108.9910 N.3   401  LYS401     -0.1245
    124  CA       202.3930  137.9890  109.5680 C.3   401  LYS401      0.1561
    125  C        201.8450  137.8120  110.9910 C.2   401  LYS401      0.2260
    126  O        201.8780  138.7390  111.8080 O.2   401  LYS401     -0.2867
    127  CB       201.3330  138.6610  108.6900 C.3   401  LYS401      0.0271
    128  CG       201.8600  139.2150  107.3860 C.3   401  LYS401      0.0035
    129  CD       200.8840  140.2370  106.8040 C.3   401  LYS401      0.0206
    130  CE       201.2900  140.6600  105.3980 C.3   401  LYS401      0.1093
    131  NZ       200.2790  141.5450  104.7530 N.3   401  LYS401     -0.1314
@<TRIPOS>BOND
     1    96    95    2
     2    95    94    1
     3    94    97    1
     4    94    93    1
     5    91    90   ar
     6    36    37    1
     7    97    98    1
     8    37    38    1
     9    37    40    1
    10    92    90   ar
    11    90    89    1
    12    38    39    2
    13    40    41    1
    14    40    42    1
    15    98    99    1
    16    88    87    2
    17    78    77    1
    18    78    81    1
    19    78    79    1
    20    85    86    1
    21    85    79   am
    22    89    86    1
    23    87    86    1
    24    82    81    1
    25    82    84    1
    26    81    83    1
    27    79    80    2
    28    99   100   ar
    29    99   101   ar
    30    31    30    1
    31    30    27    1
    32    35    34    2
    33    19    18    2
    34     8     6   am
    35    11    12    2
    36    11    10    1
    37     1     2    1
    38    27    26    1
    39    27    28    1
    40    58    59    1
    41    58    55    1
    42     6     5    1
    43     6     7    2
    44     5     2    1
    45    18    26   am
    46    18    17    1
    47    16    17    1
    48    34    33    1
    49    59    60   ar
    50    59    61   ar
    51    10     9    1
    52    10    13    1
    53    32    28   am
    54    32    33    1
    55    64    61   ar
    56    64    66   ar
    57     2     3    1
    58    60    62   ar
    59    61    63   ar
    60    28    29    2
    61    66    67   ar
    62    62    63   ar
    63    63    65   ar
    64    17    20    1
    65    67    65   ar
    66    55    56    1
    67    55    54    1
    68    43    44    1
    69    15    13    1
    70    57    56    2
    71    13    14    1
    72    56    68   am
    73     3     4    2
    74    44    45    1
    75    44    47    1
    76    20    21    1
    77    68    69    1
    78    45    46    2
    79    23    21   ar
    80    23    25   ar
    81    47    48    1
    82    21    22   ar
    83   102   103    1
    84   122   121    1
    85   122   116    1
    86   121   120    1
    87    49    48    1
    88    49    50    1
    89   111   110    2
    90    69    70    1
    91    69    72    1
    92    75    74   ar
    93   120   117    1
    94    25    24   ar
    95    70    71    2
    96   107   106    1
    97    74    73    1
    98    74    76   ar
    99    73    72    1
   100   114   113   ar
   101    52    51    1
   102    22    24   ar
   103    50    51    2
   104   103   106    1
   105   103   104    1
   106   116   117    1
   107   110   109    1
   108   115   113   ar
   109    51    53    1
   110   108   104   am
   111   108   109    1
   112   118   117    1
   113   118   119    2
   114   113   112    1
   115   131   130    1
   116   104   105    2
   117   109   112    1
   118   130   129    1
   119   129   128    1
   120   128   127    1
   121   127   124    1
   122   123   124    1
   123   124   125    1
   124   125   126    2
