@<TRIPOS>MOLECULE
tmp/1t8uA00.pdb
 203 194 0 0 0
SMALL
GASTEIGER

@<TRIPOS>ATOM
      1  N         37.2530   33.0400   42.6840 N.3    25  VAL25      -0.1231
      2  CA        38.0820   31.8480   42.5280 C.3    25  VAL25       0.1692
      3  C         38.3690   31.6850   41.0450 C.2    25  VAL25       0.2592
      4  O         37.7090   32.2960   40.2100 O.2    25  VAL25      -0.2718
      5  CB        37.3750   30.5700   43.0560 C.3    25  VAL25       0.0266
      6  CG1       36.9180   30.7880   44.4890 C.3    25  VAL25       0.0020
      7  CG2       36.1930   30.1930   42.1600 C.3    25  VAL25       0.0020
      8  N         39.3670   30.8800   40.7130 N.am   26  LYS26      -0.1966
      9  CA        39.7000   30.6760   39.3120 C.3    26  LYS26       0.1728
     10  C         38.4910   30.0810   38.5910 C.2    26  LYS26       0.2616
     11  O         37.9000   29.0980   39.0480 O.2    26  LYS26      -0.2715
     12  CB        40.9080   29.7500   39.2000 C.3    26  LYS26       0.0311
     13  CG        41.4630   29.5780   37.7990 C.3    26  LYS26       0.0038
     14  CD        42.5590   28.5180   37.8290 C.3    26  LYS26       0.0206
     15  CE        43.1110   28.2190   36.4540 C.3    26  LYS26       0.1093
     16  NZ        43.9910   27.0150   36.5050 N.3    26  LYS26      -0.1314
     17  N         38.1270   30.7080   37.4750 N.am   27  LYS27      -0.1963
     18  CA        36.9920   30.3180   36.6380 C.3    27  LYS27       0.1728
     19  C         35.6290   30.6220   37.2890 C.2    27  LYS27       0.2617
     20  O         34.5860   30.1820   36.8020 O.2    27  LYS27      -0.2715
     21  CB        37.0640   28.8250   36.2560 C.3    27  LYS27       0.0311
     22  CG        38.3950   28.3580   35.6360 C.3    27  LYS27       0.0038
     23  CD        38.9810   29.3670   34.6400 C.3    27  LYS27       0.0206
     24  CE        38.0120   29.7020   33.5110 C.3    27  LYS27       0.1093
     25  NZ        38.5230   30.8430   32.6980 N.3    27  LYS27      -0.1314
     26  N         35.6340   31.3830   38.3800 N.am   28  GLY28      -0.1940
     27  CA        34.3770   31.7040   39.0400 C.3    28  GLY28       0.2014
     28  C         33.5840   32.7940   38.3340 C.2    28  GLY28       0.2639
     29  O         32.3550   32.8680   38.4670 O.2    28  GLY28      -0.2714
     30  N         34.2990   33.6340   37.5860 N.am   29  GLY29      -0.1939
     31  CA        33.6960   34.7430   36.8620 C.3    29  GLY29       0.2014
     32  C         34.3370   36.0370   37.3350 C.2    29  GLY29       0.2640
     33  O         33.6880   37.0770   37.4240 O.2    29  GLY29      -0.2714
     34  N         35.6280   35.9750   37.6450 N.am   30  THR30      -0.1936
     35  CA        36.3400   37.1480   38.1390 C.3    30  THR30       0.2028
     36  C         36.5090   38.2550   37.1100 C.2    30  THR30       0.2642
     37  O         36.4460   39.4370   37.4520 O.2    30  THR30      -0.2714
     38  CB        37.7330   36.7720   38.6650 C.3    30  THR30       0.1808
     39  OG1       38.4840   36.1420   37.6210 O.3    30  THR30      -0.2208
     40  CG2       37.6110   35.8160   39.8450 C.3    30  THR30       0.0379
     41  N         36.7320   37.8920   35.8540 N.am   31  ARG31      -0.1963
     42  CA        36.9030   38.9200   34.8360 C.3    31  ARG31       0.1729
     43  C         35.5910   39.6600   34.6390 C.2    31  ARG31       0.2616
     44  O         35.5590   40.8930   34.5520 O.2    31  ARG31      -0.2715
     45  CB        37.3560   38.3040   33.5090 C.3    31  ARG31       0.0348
     46  CG        37.4420   39.3090   32.3710 C.3    31  ARG31       0.0492
     47  CD        38.3150   40.5010   32.7610 C.3    31  ARG31       0.2205
     48  NE        39.7040   40.1090   32.9780 N.pl3  31  ARG31      -0.0865
     49  CZ        40.6550   40.9250   33.4250 C.cat  31  ARG31       0.5346
     50  NH1       40.3680   42.1900   33.7100 N.pl3  31  ARG31       0.1354
     51  NH2       41.8960   40.4770   33.5790 N.pl3  31  ARG31       0.1354
     52  N         34.5030   38.9000   34.5870 N.am   32  ALA32      -0.1977
     53  CA        33.1930   39.4850   34.3840 C.3    32  ALA32       0.1597
     54  C         32.8840   40.4860   35.4890 C.2    32  ALA32       0.2287
     55  O         32.5150   41.6320   35.2180 O.2    32  ALA32      -0.2864
     56  CB        32.1330   38.3890   34.3430 C.3    32  ALA32       0.0319
     57  N         32.4520   44.5640   34.9500 N.3    36  PHE36      -0.1241
     58  CA        31.1700   45.1820   35.2720 C.3    36  PHE36       0.1605
     59  C         31.3570   46.2900   36.3020 C.2    36  PHE36       0.2264
     60  O         30.7830   47.3740   36.1820 O.2    36  PHE36      -0.2867
     61  CB        30.1850   44.1430   35.8270 C.3    36  PHE36       0.0534
     62  CG        29.8270   43.0540   34.8520 C.ar   36  PHE36      -0.0203
     63  CD1       30.1270   43.1780   33.4970 C.ar   36  PHE36      -0.0042
     64  CD2       29.1710   41.9090   35.2900 C.ar   36  PHE36      -0.0042
     65  CE1       29.7800   42.1760   32.5950 C.ar   36  PHE36      -0.0003
     66  CE2       28.8200   40.9030   34.4010 C.ar   36  PHE36      -0.0003
     67  CZ        29.1240   41.0340   33.0480 C.ar   36  PHE36      -0.0000
     68  N         42.3390   42.2390   40.5410 N.3    80  LYS80      -0.1245
     69  CA        41.8570   40.8770   40.6980 C.3    80  LYS80       0.1561
     70  C         42.9280   39.8790   40.2640 C.2    80  LYS80       0.2260
     71  O         43.5600   40.0420   39.2170 O.2    80  LYS80      -0.2867
     72  CB        40.5630   40.6530   39.8950 C.3    80  LYS80       0.0271
     73  CG        40.7300   40.4820   38.3810 C.3    80  LYS80       0.0035
     74  CD        40.7440   39.0080   37.9580 C.3    80  LYS80       0.0206
     75  CE        40.7160   38.8740   36.4310 C.3    80  LYS80       0.1093
     76  NZ        40.6130   37.4470   35.9750 N.3    80  LYS80      -0.1314
     77  N         42.7890   35.7130   40.6060 N.3    82  PRO82      -0.2116
     78  CA        42.0410   34.5050   40.9940 C.3    82  PRO82       0.1372
     79  C         42.7690   33.4900   41.8710 C.2    82  PRO82       0.2244
     80  O         42.1420   32.7510   42.6330 O.2    82  PRO82      -0.2868
     81  CB        41.6400   33.9040   39.6460 C.3    82  PRO82       0.0268
     82  CG        41.5440   35.1110   38.7520 C.3    82  PRO82       0.0207
     83  CD        42.7800   35.8820   39.1450 C.3    82  PRO82       0.0892
     84  N         31.6890   29.4820   42.2700 N.3   108  ARG108     -0.1245
     85  CA        30.9200   28.7940   41.2450 C.3   108  ARG108      0.1563
     86  C         30.7550   27.3340   41.6440 C.2   108  ARG108      0.2260
     87  O         31.5550   26.8110   42.4130 O.2   108  ARG108     -0.2867
     88  CB        31.6910   28.8940   39.9180 C.3   108  ARG108      0.0307
     89  CG        31.1660   28.0690   38.7630 C.3   108  ARG108      0.0489
     90  CD        32.0530   28.3000   37.5320 C.3   108  ARG108      0.2205
     91  NE        31.5550   27.6350   36.3300 N.pl3 108  ARG108     -0.0865
     92  CZ        32.0230   27.8600   35.1050 C.cat 108  ARG108      0.5346
     93  NH1       33.0050   28.7310   34.9160 N.pl3 108  ARG108      0.1354
     94  NH2       31.5040   27.2210   34.0650 N.pl3 108  ARG108      0.1354
     95  N         35.4910   23.7780   33.9220 N.3   116  SER116     -0.1217
     96  CA        35.9040   25.0150   33.2610 C.3   116  SER116      0.1889
     97  C         37.4300   25.1370   33.3480 C.2   116  SER116      0.2288
     98  O         38.0970   25.5120   32.3770 O.2   116  SER116     -0.2866
     99  CB        35.2470   26.2230   33.9390 C.3   116  SER116      0.2089
    100  OG        35.6900   27.4440   33.3690 O.3   116  SER116     -0.2183
    101  N         38.8550   22.7280   30.9270 N.3   119  THR119     -0.1218
    102  CA        38.6510   23.2210   29.5710 C.3   119  THR119      0.1862
    103  C         39.6690   24.2900   29.1750 C.2   119  THR119      0.2287
    104  O         40.1020   24.3520   28.0210 O.2   119  THR119     -0.2866
    105  CB        37.2290   23.7700   29.4250 C.3   119  THR119      0.1770
    106  OG1       36.3040   22.7220   29.7350 O.3   119  THR119     -0.2211
    107  CG2       36.9680   24.2730   27.9950 C.3   119  THR119      0.0375
    108  N         28.6180   33.1360   41.2320 N.3   174  GLY174     -0.1225
    109  CA        29.0350   33.1290   39.8390 C.3   174  GLY174      0.1811
    110  C         27.8700   32.8280   38.9140 C.2   174  GLY174      0.2280
    111  O         27.8030   33.3410   37.7940 O.2   174  GLY174     -0.2866
    112  N         25.6740   35.8910   38.6930 N.3   177  LEU177     -0.1231
    113  CA        26.3920   36.9440   37.9930 C.3   177  LEU177      0.1693
    114  C         26.0110   36.8280   36.5210 C.2   177  LEU177      0.2591
    115  O         25.9870   37.8180   35.7850 O.2   177  LEU177     -0.2718
    116  CB        27.9010   36.7520   38.1570 C.3   177  LEU177      0.0284
    117  CG        28.8240   37.7580   37.4720 C.3   177  LEU177      0.0019
    118  CD1       28.4940   39.1750   37.9150 C.3   177  LEU177      0.0001
    119  CD2       30.2680   37.4070   37.8120 C.3   177  LEU177      0.0001
    120  N         25.7140   35.6000   36.1040 N.am  178  ILE178     -0.1980
    121  CA        25.3190   35.3270   34.7300 C.3   178  ILE178      0.1595
    122  C         23.8200   35.5400   34.5270 C.2   178  ILE178      0.2287
    123  O         23.4050   36.1930   33.5730 O.2   178  ILE178     -0.2864
    124  CB        25.6650   33.8710   34.3340 C.3   178  ILE178      0.0276
    125  CG1       27.1840   33.6790   34.3660 C.3   178  ILE178      0.0022
    126  CG2       25.0800   33.5400   32.9520 C.3   178  ILE178      0.0022
    127  CD1       27.6460   32.2510   34.1200 C.3   178  ILE178      0.0001
    128  N         26.3590   34.5710   22.0200 N.3   209  LYS209     -0.1245
    129  CA        27.3910   34.1670   22.9730 C.3   209  LYS209      0.1561
    130  C         26.8270   33.3940   24.1590 C.2   209  LYS209      0.2260
    131  O         27.5360   32.6110   24.7870 O.2   209  LYS209     -0.2867
    132  CB        28.1630   35.3930   23.4800 C.3   209  LYS209      0.0271
    133  CG        29.3910   35.0470   24.3220 C.3   209  LYS209      0.0035
    134  CD        30.1220   36.2930   24.7870 C.3   209  LYS209      0.0206
    135  CE        31.3000   35.9460   25.6990 C.3   209  LYS209      0.1093
    136  NZ        32.3600   35.1460   25.0150 N.3   209  LYS209     -0.1314
    137  N         25.7060   34.7890   26.9370 N.3   211  PHE211     -0.1228
    138  CA        26.0110   35.4830   28.1880 C.3   211  PHE211      0.1721
    139  C         25.6490   36.9540   28.0900 C.2   211  PHE211      0.2437
    140  O         25.5270   37.5080   26.9900 O.2   211  PHE211     -0.2733
    141  CB        27.5060   35.4250   28.5160 C.3   211  PHE211      0.0547
    142  CG        28.0200   34.0580   28.8620 C.ar  211  PHE211     -0.0202
    143  CD1       28.3590   33.1520   27.8640 C.ar  211  PHE211     -0.0042
    144  CD2       28.2150   33.6960   30.1930 C.ar  211  PHE211     -0.0042
    145  CE1       28.8900   31.9080   28.1830 C.ar  211  PHE211     -0.0003
    146  CE2       28.7460   32.4540   30.5280 C.ar  211  PHE211     -0.0003
    147  CZ        29.0870   31.5530   29.5200 C.ar  211  PHE211     -0.0000
    148  N         25.4600   37.6100   29.2400 N.am  212  PRO212     -0.2729
    149  CA        25.1310   39.0300   29.1540 C.3   212  PRO212      0.1401
    150  C         26.3970   39.7910   28.7610 C.2   212  PRO212      0.2269
    151  O         27.5130   39.2810   28.9090 O.2   212  PRO212     -0.2865
    152  CB        24.6440   39.3660   30.5660 C.3   212  PRO212      0.0296
    153  CG        25.2800   38.3290   31.4290 C.3   212  PRO212      0.0237
    154  CD        25.2130   37.0860   30.5950 C.3   212  PRO212      0.0939
    155  N         32.5560   39.8110   26.7770 N.3   226  LEU226     -0.1245
    156  CA        33.8570   39.2720   27.1440 C.3   226  LEU226      0.1561
    157  C         34.3960   38.4800   25.9540 C.2   226  LEU226      0.2260
    158  O         33.6270   37.9940   25.1290 O.2   226  LEU226     -0.2867
    159  CB        33.7370   38.3800   28.3860 C.3   226  LEU226      0.0270
    160  CG        33.7550   39.1420   29.7160 C.3   226  LEU226      0.0019
    161  CD1       32.6640   40.1990   29.7360 C.3   226  LEU226      0.0001
    162  CD2       33.5800   38.1680   30.8660 C.3   226  LEU226      0.0001
    163  N         37.7670   33.6130   25.1940 N.3   229  THR229     -0.1203
    164  CA        38.2810   32.7140   26.2320 C.3   229  THR229      0.1994
    165  C         37.3800   32.7180   27.4620 C.2   229  THR229      0.2618
    166  O         37.6200   31.9870   28.4180 O.2   229  THR229     -0.2717
    167  CB        39.6990   33.1010   26.6880 C.3   229  THR229      0.1784
    168  OG1       39.6610   34.3630   27.3640 O.3   229  THR229     -0.2211
    169  CG2       40.6360   33.1890   25.4950 C.3   229  THR229      0.0376
    170  N         36.3500   33.5560   27.4340 N.am  230  LYS230     -0.1965
    171  CA        35.4060   33.6560   28.5440 C.3   230  LYS230      0.1728
    172  C         34.0640   33.1280   28.0580 C.2   230  LYS230      0.2617
    173  O         33.3720   33.7860   27.2830 O.2   230  LYS230     -0.2715
    174  CB        35.2770   35.1110   28.9920 C.3   230  LYS230      0.0311
    175  CG        36.6010   35.7500   29.4180 C.3   230  LYS230      0.0038
    176  CD        37.2120   35.0210   30.6050 C.3   230  LYS230      0.0206
    177  CE        38.3440   35.8100   31.2430 C.3   230  LYS230      0.1093
    178  NZ        38.8940   35.0700   32.4300 N.3   230  LYS230     -0.1314
    179  N         33.7050   31.9360   28.5230 N.am  231  GLY231     -0.1940
    180  CA        32.4700   31.3100   28.0980 C.3   231  GLY231      0.2014
    181  C         32.7970   30.2030   27.1000 C.2   231  GLY231      0.2638
    182  O         32.1450   30.0730   26.0590 O.2   231  GLY231     -0.2714
    183  N         33.8170   29.4080   27.4170 N.am  232  ARG232     -0.1977
    184  CA        34.2400   28.3090   26.5520 C.3   232  ARG232      0.1597
    185  C         33.2380   27.1700   26.5780 C.2   232  ARG232      0.2287
    186  O         32.5500   26.9490   27.5800 O.2   232  ARG232     -0.2864
    187  CB        35.6030   27.7390   26.9890 C.3   232  ARG232      0.0334
    188  CG        36.7820   28.7010   26.9880 C.3   232  ARG232      0.0492
    189  CD        38.0990   27.9060   27.0720 C.3   232  ARG232      0.2205
    190  NE        39.2980   28.7420   27.0170 N.pl3 232  ARG232     -0.0865
    191  CZ        39.8310   29.3670   28.0630 C.cat 232  ARG232      0.5346
    192  NH1       39.2720   29.2570   29.2580 N.pl3 232  ARG232      0.1354
    193  NH2       40.9340   30.0950   27.9160 N.pl3 232  ARG232      0.1354
    194  N         32.2820   23.5540   27.0800 N.3   234  HIS234     -0.1241
    195  CA        32.8750   22.4850   27.8800 C.3   234  HIS234      0.1621
    196  C         32.6690   21.1480   27.1970 C.2   234  HIS234      0.2264
    197  O         31.7160   20.9720   26.4450 O.2   234  HIS234     -0.2867
    198  CB        32.2050   22.3850   29.2560 C.3   234  HIS234      0.0745
    199  CG        32.4070   23.5820   30.1290 C.ar  234  HIS234      0.0817
    200  ND1       31.9040   23.6550   31.4110 N.ar  234  HIS234     -0.2268
    201  CD2       33.0630   24.7460   29.9130 C.ar  234  HIS234      0.1154
    202  CE1       32.2410   24.8140   31.9480 C.ar  234  HIS234      0.1986
    203  NE2       32.9450   25.4950   31.0600 N.ar  234  HIS234     -0.2212
@<TRIPOS>BOND
     1   128   129    1
     2   129   132    1
     3   129   130    1
     4   132   133    1
     5   130   131    2
     6   133   134    1
     7   134   135    1
     8   136   135    1
     9   158   157    2
    10   163   164    1
    11   169   167    1
    12   157   156    1
    13   182   181    2
    14   164   167    1
    15   164   165    1
    16   197   196    2
    17   184   185    1
    18   184   187    1
    19   184   183    1
    20   185   186    2
    21   167   168    1
    22   155   156    1
    23   137   138    1
    24   188   187    1
    25   188   189    1
    26   140   139    2
    27   190   189    1
    28   190   191    2
    29   194   195    1
    30   181   183   am
    31   181   180    1
    32   156   159    1
    33   196   195    1
    34   173   172    2
    35   170   165   am
    36   170   171    1
    37   165   166    2
    38   143   145   ar
    39   143   142   ar
    40   195   198    1
    41   193   191    1
    42   107   105    1
    43   104   103    2
    44   172   179   am
    45   172   171    1
    46   191   192    1
    47   139   138    1
    48   139   148   am
    49   180   179    1
    50   145   147   ar
    51   138   141    1
    52   159   160    1
    53   141   142    1
    54   171   174    1
    55   150   151    2
    56   150   149    1
    57   142   144   ar
    58   174   175    1
    59   149   148    1
    60   149   152    1
    61   103   102    1
    62   148   154    1
    63   198   199    1
    64   175   176    1
    65   105   102    1
    66   105   106    1
    67   147   146   ar
    68   102   101    1
    69   160   161    1
    70   160   162    1
    71   201   199   ar
    72   201   203   ar
    73   199   200   ar
    74   144   146   ar
    75   152   153    1
    76   154   153    1
    77   176   177    1
    78   203   202   ar
    79   177   178    1
    80   200   202   ar
    81    46    47    1
    82    46    45    1
    83    98    97    2
    84    65    67   ar
    85    65    63   ar
    86    25    24    1
    87    47    48    1
    88   126   124    1
    89    48    49    2
    90    67    66   ar
    91    96    97    1
    92    96    95    1
    93    96    99    1
    94   100    99    1
    95    49    51    1
    96    49    50    1
    97    63    62   ar
    98    45    42    1
    99    24    23    1
   100   123   122    2
   101    94    92    1
   102   127   125    1
   103   124   125    1
   104   124   121    1
   105    56    53    1
   106    53    52    1
   107    53    54    1
   108    66    64   ar
   109   122   121    1
   110    44    43    2
   111    52    43   am
   112    43    42    1
   113    23    22    1
   114   121   120    1
   115    42    41    1
   116    62    64   ar
   117    62    61    1
   118    93    92    1
   119    57    58    1
   120    92    91    2
   121    55    54    2
   122    58    61    1
   123    58    59    1
   124    22    21    1
   125   115   114    2
   126    41    36   am
   127    76    75    1
   128   120   114   am
   129    60    59    2
   130    21    18    1
   131    91    90    1
   132    75    74    1
   133    15    16    1
   134    15    14    1
   135   114   113    1
   136    18    19    1
   137    18    17    1
   138    20    19    2
   139    31    32    1
   140    31    30    1
   141    36    37    2
   142    36    35    1
   143    19    26   am
   144    32    33    2
   145    32    34   am
   146   117   119    1
   147   117   118    1
   148   117   116    1
   149    17    10   am
   150    90    89    1
   151    30    28   am
   152    39    38    1
   153    34    35    1
   154   111   110    2
   155    13    14    1
   156    13    12    1
   157    74    73    1
   158   113   116    1
   159   113   112    1
   160    35    38    1
   161    28    29    2
   162    28    27    1
   163    26    27    1
   164    73    72    1
   165    10    11    2
   166    10     9    1
   167    38    40    1
   168    82    83    1
   169    82    81    1
   170    89    88    1
   171   110   109    1
   172    83    77    1
   173    12     9    1
   174    71    70    2
   175     9     8    1
   176    81    78    1
   177   109   108    1
   178    72    69    1
   179    88    85    1
   180     4     3    2
   181    70    69    1
   182    68    69    1
   183    77    78    1
   184     8     3   am
   185    78    79    1
   186     3     2    1
   187    85    86    1
   188    85    84    1
   189    86    87    2
   190    79    80    2
   191     7     5    1
   192     2     1    1
   193     2     5    1
   194     5     6    1
