@<TRIPOS>MOLECULE
tmp/1t8uB00.pdb
 219 208 0 0 0
SMALL
GASTEIGER

@<TRIPOS>ATOM
      1  N         22.7170   78.3870   21.4390 N.3    26  LYS26      -0.1231
      2  CA        24.1560   78.6170   21.3550 C.3    26  LYS26       0.1693
      3  C         24.6750   79.2150   22.6650 C.2    26  LYS26       0.2591
      4  O         24.1100   80.1770   23.1840 O.2    26  LYS26      -0.2718
      5  CB        24.4350   79.5560   20.1910 C.3    26  LYS26       0.0285
      6  CG        25.8920   79.7500   19.8230 C.3    26  LYS26       0.0035
      7  CD        25.9310   80.7480   18.6730 C.3    26  LYS26       0.0206
      8  CE        27.3200   81.0970   18.2420 C.3    26  LYS26       0.1093
      9  NZ        27.2470   82.1710   17.2150 N.3    26  LYS26      -0.1314
     10  N         25.7420   78.6260   23.2000 N.am   27  LYS27      -0.1980
     11  CA        26.3610   79.0640   24.4610 C.3    27  LYS27       0.1596
     12  C         25.5080   78.7650   25.6960 C.2    27  LYS27       0.2287
     13  O         25.8380   79.1930   26.8020 O.2    27  LYS27      -0.2864
     14  CB        26.6800   80.5660   24.4230 C.3    27  LYS27       0.0298
     15  CG        27.4580   81.0110   23.1860 C.3    27  LYS27       0.0038
     16  CD        28.5280   79.9840   22.8040 C.3    27  LYS27       0.0206
     17  CE        29.5770   79.7960   23.9010 C.3    27  LYS27       0.1093
     18  NZ        30.4200   78.5980   23.6160 N.3    27  LYS27      -0.1314
     19  N         27.1080   71.5050   24.8860 N.3    31  ARG31      -0.1245
     20  CA        28.1340   70.4590   24.8740 C.3    31  ARG31       0.1563
     21  C         28.1460   69.7400   26.2150 C.2    31  ARG31       0.2260
     22  O         28.1750   68.5160   26.2710 O.2    31  ARG31      -0.2867
     23  CB        29.5250   71.0400   24.5800 C.3    31  ARG31       0.0307
     24  CG        30.6590   70.0100   24.6620 C.3    31  ARG31       0.0489
     25  CD        30.3980   68.7900   23.7740 C.3    31  ARG31       0.2205
     26  NE        30.2990   69.1330   22.3550 N.pl3  31  ARG31      -0.0865
     27  CZ        29.9480   68.2780   21.3930 C.cat  31  ARG31       0.5346
     28  NH1       29.6530   67.0170   21.6890 N.pl3  31  ARG31       0.1354
     29  NH2       29.9050   68.6780   20.1250 N.pl3  31  ARG31       0.1354
     30  N         28.6320   68.4080   15.7330 N.3    49  GLU49      -0.1245
     31  CA        27.3260   69.0110   15.4800 C.3    49  GLU49       0.1567
     32  C         27.0350   68.7320   14.0070 C.2    49  GLU49       0.2260
     33  O         27.7510   69.2120   13.1290 O.2    49  GLU49      -0.2867
     34  CB        27.3720   70.5280   15.7090 C.3    49  GLU49       0.0388
     35  CG        27.9440   70.9370   17.0580 C.3    49  GLU49       0.1160
     36  CD        27.9910   72.4420   17.2480 C.2    49  GLU49       0.3649
     37  OE1       28.1770   73.1670   16.2440 O.co2  49  GLU49      -0.2457
     38  OE2       27.8590   72.8980   18.4050 O.co2  49  GLU49      -0.2457
     39  N         24.5320   69.7690   12.0230 N.3    51  HIS51      -0.1241
     40  CA        24.0950   70.9270   11.2510 C.3    51  HIS51       0.1621
     41  C         23.3820   70.4350    9.9990 C.2    51  HIS51       0.2264
     42  O         23.5890   70.9460    8.8950 O.2    51  HIS51      -0.2867
     43  CB        25.2910   71.8090   10.8720 C.3    51  HIS51       0.0745
     44  CG        25.7890   72.6560   11.9990 C.ar   51  HIS51       0.0817
     45  ND1       25.1450   73.8060   12.4030 N.ar   51  HIS51      -0.2268
     46  CD2       26.8350   72.4960   12.8420 C.ar   51  HIS51       0.1154
     47  CE1       25.7720   74.3150   13.4480 C.ar   51  HIS51       0.1986
     48  NE2       26.8000   73.5390   13.7350 N.ar   51  HIS51      -0.2212
     49  N         22.2300   73.4570    7.6820 N.3    55  ARG55      -0.1245
     50  CA        23.2190   73.5500    6.6040 C.3    55  ARG55       0.1563
     51  C         23.3190   72.4520    5.5450 C.2    55  ARG55       0.2260
     52  O         23.6690   72.7340    4.4010 O.2    55  ARG55      -0.2867
     53  CB        24.6120   73.7130    7.2080 C.3    55  ARG55       0.0307
     54  CG        24.7850   74.9290    8.0790 C.3    55  ARG55       0.0489
     55  CD        26.1590   74.9130    8.7290 C.3    55  ARG55       0.2205
     56  NE        26.3820   76.0990    9.5430 N.pl3  55  ARG55      -0.0865
     57  CZ        27.3440   76.2100   10.4510 C.cat  55  ARG55       0.5346
     58  NH1       28.1750   75.2000   10.6640 N.pl3  55  ARG55       0.1354
     59  NH2       27.4670   77.3320   11.1470 N.pl3  55  ARG55       0.1354
     60  N         23.3450   67.1270   18.7900 N.3    80  LYS80      -0.1245
     61  CA        23.0870   68.4890   19.2230 C.3    80  LYS80       0.1561
     62  C         23.6670   69.4570   18.2040 C.2    80  LYS80       0.2260
     63  O         24.7910   69.2840   17.7430 O.2    80  LYS80      -0.2867
     64  CB        23.6860   68.7600   20.6160 C.3    80  LYS80       0.0271
     65  CG        25.2000   68.9250   20.6870 C.3    80  LYS80       0.0035
     66  CD        25.6310   70.3850   20.5430 C.3    80  LYS80       0.0206
     67  CE        27.0640   70.5820   21.0410 C.3    80  LYS80       0.1093
     68  NZ        27.5560   71.9890   20.9050 N.3    80  LYS80      -0.1314
     69  N         23.3960   73.5760   18.1900 N.3    82  PRO82      -0.2102
     70  CA        22.8650   74.7850   18.8320 C.3    82  PRO82       0.1504
     71  C         22.0720   75.7370   17.9450 C.2    82  PRO82       0.2576
     72  O         21.1400   76.3890   18.4160 O.2    82  PRO82      -0.2718
     73  CB        24.1170   75.4470   19.4060 C.3    82  PRO82       0.0282
     74  CG        25.0370   74.2830   19.6600 C.3    82  PRO82       0.0208
     75  CD        24.8500   73.4640   18.4080 C.3    82  PRO82       0.0893
     76  N         22.4300   75.8140   16.6680 N.am   83  SER83      -0.1953
     77  CA        21.7540   76.7240   15.7450 C.3    83  SER83       0.1924
     78  C         20.3380   76.3450   15.3140 C.2    83  SER83       0.2314
     79  O         19.6020   77.1960   14.8110 O.2    83  SER83      -0.2863
     80  CB        22.6150   76.9260   14.4990 C.3    83  SER83       0.2116
     81  OG        22.8690   75.6870   13.8580 O.3    83  SER83      -0.2180
     82  N         28.5910   84.5210   23.6920 N.3   117  ASP117     -0.1225
     83  CA        28.5910   84.4160   22.2340 C.3   117  ASP117      0.1805
     84  C         29.6510   85.3810   21.6860 C.2   117  ASP117      0.2597
     85  O         30.5040   84.9960   20.8900 O.2   117  ASP117     -0.2718
     86  CB        27.2060   84.7950   21.6950 C.3   117  ASP117      0.1424
     87  CG        26.8920   84.1570   20.3510 C.2   117  ASP117      0.3668
     88  OD1       27.8210   83.7140   19.6510 O.co2 117  ASP117     -0.2456
     89  OD2       25.6970   84.1110   19.9870 O.co2 117  ASP117     -0.2456
     90  N         29.6000   86.6330   22.1320 N.am  118  TYR118     -0.1976
     91  CA        30.5600   87.6470   21.6890 C.3   118  TYR118      0.1639
     92  C         32.0050   87.2200   21.9760 C.2   118  TYR118      0.2290
     93  O         32.8940   87.3360   21.1200 O.2   118  TYR118     -0.2864
     94  CB        30.2820   88.9720   22.4020 C.3   118  TYR118      0.0560
     95  CG        31.3480   90.0190   22.1710 C.ar  118  TYR118     -0.0198
     96  CD1       31.4270   90.7140   20.9610 C.ar  118  TYR118     -0.0009
     97  CD2       32.2880   90.3070   23.1600 C.ar  118  TYR118     -0.0009
     98  CE1       32.4130   91.6740   20.7440 C.ar  118  TYR118      0.0417
     99  CE2       33.2880   91.2660   22.9490 C.ar  118  TYR118      0.0417
    100  CZ        33.3410   91.9440   21.7430 C.ar  118  TYR118      0.1957
    101  OH        34.3140   92.8990   21.5440 O.3   118  TYR118     -0.2866
    102  N         33.1950   84.2630   22.3000 N.3   120  GLN120     -0.1231
    103  CA        33.6250   83.1810   21.4210 C.3   120  GLN120      0.1698
    104  C         34.1260   83.7660   20.1080 C.2   120  GLN120      0.2592
    105  O         35.2120   83.4230   19.6410 O.2   120  GLN120     -0.2718
    106  CB        32.4750   82.2110   21.1490 C.3   120  GLN120      0.0381
    107  CG        32.8550   81.0500   20.2360 C.3   120  GLN120      0.0905
    108  CD        31.9960   79.8260   20.4820 C.2   120  GLN120      0.2608
    109  OE1       32.0080   79.2640   21.5680 O.2   120  GLN120     -0.2717
    110  NE2       31.2450   79.4110   19.4720 N.am  120  GLN120     -0.0878
    111  N         33.3370   84.6590   19.5160 N.am  121  THR121     -0.1953
    112  CA        33.7360   85.2720   18.2570 C.3   121  THR121      0.1897
    113  C         35.0330   86.0430   18.4640 C.2   121  THR121      0.2313
    114  O         35.9300   86.0010   17.6260 O.2   121  THR121     -0.2863
    115  CB        32.6550   86.2330   17.7240 C.3   121  THR121      0.1794
    116  OG1       31.4640   85.4930   17.4170 O.3   121  THR121     -0.2208
    117  CG2       33.1490   86.9420   16.4650 C.3   121  THR121      0.0378
    118  N         37.4640   85.4180   20.3800 N.3   123  SER123     -0.1202
    119  CA        38.6080   84.5070   20.4300 C.3   123  SER123      0.2020
    120  C         39.0580   84.0880   19.0370 C.2   123  SER123      0.2619
    121  O         40.1830   83.6290   18.8570 O.2   123  SER123     -0.2717
    122  CB        38.2630   83.2580   21.2490 C.3   123  SER123      0.2103
    123  OG        37.3390   82.4290   20.5570 O.3   123  SER123     -0.2182
    124  N         38.1840   84.2500   18.0520 N.am  124  LYS124     -0.1965
    125  CA        38.5190   83.8720   16.6870 C.3   124  LYS124      0.1728
    126  C         38.7650   85.0930   15.8040 C.2   124  LYS124      0.2616
    127  O         39.4810   85.0180   14.8010 O.2   124  LYS124     -0.2715
    128  CB        37.4050   82.9960   16.1100 C.3   124  LYS124      0.0311
    129  CG        37.2130   81.7140   16.9080 C.3   124  LYS124      0.0038
    130  CD        36.2150   80.7680   16.2660 C.3   124  LYS124      0.0206
    131  CE        34.7890   81.1980   16.5370 C.3   124  LYS124      0.1093
    132  NZ        33.8300   80.2100   15.9760 N.3   124  LYS124     -0.1314
    133  N         38.1620   86.2120   16.1890 N.am  125  ARG125     -0.1977
    134  CA        38.2990   87.4790   15.4810 C.3   125  ARG125      0.1597
    135  C         38.5720   88.5210   16.5600 C.2   125  ARG125      0.2287
    136  O         37.6710   89.2380   16.9950 O.2   125  ARG125     -0.2864
    137  CB        37.0100   87.8150   14.7290 C.3   125  ARG125      0.0334
    138  CG        36.6790   86.8510   13.5930 C.3   125  ARG125      0.0492
    139  CD        35.8700   87.5510   12.5110 C.3   125  ARG125      0.2205
    140  NE        34.5320   87.9150   12.9690 N.pl3 125  ARG125     -0.0865
    141  CZ        33.8170   88.9220   12.4720 C.cat 125  ARG125      0.5346
    142  NH1       34.3120   89.6780   11.5000 N.pl3 125  ARG125      0.1354
    143  NH2       32.6000   89.1670   12.9420 N.pl3 125  ARG125      0.1354
    144  N         37.4510   92.6670   16.3620 N.3   128  ILE128     -0.1245
    145  CA        36.0800   93.1420   16.1820 C.3   128  ILE128      0.1561
    146  C         35.8000   94.2750   17.1760 C.2   128  ILE128      0.2260
    147  O         36.5250   94.4430   18.1530 O.2   128  ILE128     -0.2867
    148  CB        35.0560   92.0050   16.4280 C.3   128  ILE128      0.0252
    149  CG1       35.2300   91.4500   17.8470 C.3   128  ILE128      0.0019
    150  CG2       35.2320   90.9130   15.3790 C.3   128  ILE128      0.0019
    151  CD1       34.2380   90.3550   18.2170 C.3   128  ILE128      0.0001
    152  N         28.7010   97.0090   19.4500 N.3   134  LEU134     -0.1245
    153  CA        27.7500   96.2260   18.6670 C.3   134  LEU134      0.1561
    154  C         26.3490   96.1410   19.2800 C.2   134  LEU134      0.2260
    155  O         25.3760   95.8580   18.5820 O.2   134  LEU134     -0.2867
    156  CB        28.2980   94.8140   18.4530 C.3   134  LEU134      0.0270
    157  CG        29.5950   94.7180   17.6390 C.3   134  LEU134      0.0019
    158  CD1       30.2320   93.3510   17.8310 C.3   134  LEU134      0.0001
    159  CD2       29.3040   94.9860   16.1720 C.3   134  LEU134      0.0001
    160  N         21.4610   92.2450   15.5380 N.3   148  TRP148     -0.1227
    161  CA        22.7310   91.6000   15.8680 C.3   148  TRP148      0.1737
    162  C         22.4520   90.2010   16.4410 C.2   148  TRP148      0.2596
    163  O         21.7400   90.0600   17.4330 O.2   148  TRP148     -0.2718
    164  CB        23.4960   92.4690   16.8700 C.3   148  TRP148      0.0564
    165  CG        24.8220   91.9160   17.2760 C.ar  148  TRP148      0.0003
    166  CD1       25.6680   91.1700   16.5110 C.ar  148  TRP148      0.0946
    167  CD2       25.4660   92.0820   18.5460 C.ar  148  TRP148      0.0152
    168  NE1       26.8020   90.8550   17.2260 N.ar  148  TRP148     -0.2442
    169  CE2       26.7040   91.4010   18.4790 C.ar  148  TRP148      0.0810
    170  CE3       25.1170   92.7390   19.7340 C.ar  148  TRP148      0.0012
    171  CZ2       27.5980   91.3560   19.5580 C.ar  148  TRP148      0.0191
    172  CZ3       26.0050   92.6970   20.8080 C.ar  148  TRP148      0.0001
    173  CH2       27.2330   92.0060   20.7110 C.ar  148  TRP148      0.0015
    174  N         23.0070   89.1710   15.8070 N.am  149  SER149     -0.1938
    175  CA        22.7800   87.7900   16.2330 C.3   149  SER149      0.2055
    176  C         22.9240   87.5090   17.7320 C.2   149  SER149      0.2642
    177  O         22.1170   86.7710   18.2990 O.2   149  SER149     -0.2714
    178  CB        23.6940   86.8380   15.4470 C.3   149  SER149      0.2130
    179  OG        25.0470   87.2380   15.5530 O.3   149  SER149     -0.2179
    180  N         23.9360   88.0860   18.3740 N.am  150  ALA150     -0.1977
    181  CA        24.1400   87.8550   19.8040 C.3   150  ALA150      0.1597
    182  C         22.9330   88.2770   20.6470 C.2   150  ALA150      0.2287
    183  O         22.6520   87.6770   21.6820 O.2   150  ALA150     -0.2864
    184  CB        25.3870   88.5830   20.2810 C.3   150  ALA150      0.0319
    185  N         19.4380   85.8460   19.2490 N.3   153  ILE153     -0.1245
    186  CA        19.3510   84.4820   19.7380 C.3   153  ILE153      0.1561
    187  C         18.7130   84.4230   21.1240 C.2   153  ILE153      0.2260
    188  O         17.9780   83.4860   21.4410 O.2   153  ILE153     -0.2867
    189  CB        20.7550   83.8310   19.7890 C.3   153  ILE153      0.0252
    190  CG1       21.2720   83.6190   18.3610 C.3   153  ILE153      0.0019
    191  CG2       20.6920   82.5070   20.5540 C.3   153  ILE153      0.0019
    192  CD1       22.7500   83.2140   18.2670 C.3   153  ILE153      0.0001
    193  N         37.6630   75.8720   25.2170 N.3   232  THR232     -0.1203
    194  CA        36.6300   76.7010   24.5970 C.3   232  THR232      0.1994
    195  C         35.3150   76.6940   25.3730 C.2   232  THR232      0.2617
    196  O         34.3680   77.3810   24.9950 O.2   232  THR232     -0.2717
    197  CB        36.3300   76.2380   23.1620 C.3   232  THR232      0.1784
    198  OG1       35.7750   74.9160   23.1950 O.3   232  THR232     -0.2211
    199  CG2       37.6030   76.2150   22.3320 C.3   232  THR232      0.0376
    200  N         35.2580   75.9140   26.4480 N.am  233  LYS233     -0.1979
    201  CA        34.0510   75.8280   27.2650 C.3   233  LYS233      0.1596
    202  C         34.3360   76.3710   28.6630 C.2   233  LYS233      0.2287
    203  O         35.0150   75.7290   29.4770 O.2   233  LYS233     -0.2864
    204  CB        33.5770   74.3770   27.3420 C.3   233  LYS233      0.0298
    205  CG        33.3470   73.7380   25.9730 C.3   233  LYS233      0.0038
    206  CD        32.1360   74.3400   25.2650 C.3   233  LYS233      0.0206
    207  CE        31.9750   73.7640   23.8610 C.3   233  LYS233      0.1093
    208  NZ        30.8160   74.3730   23.1310 N.3   233  LYS233     -0.1314
    209  N         34.9100   80.1140   29.0270 N.3   235  ARG235     -0.1245
    210  CA        35.8360   81.2180   28.7640 C.3   235  ARG235      0.1563
    211  C         35.6360   82.3660   29.7450 C.2   235  ARG235      0.2260
    212  O         34.5360   82.5680   30.2720 O.2   235  ARG235     -0.2867
    213  CB        35.6350   81.7850   27.3520 C.3   235  ARG235      0.0307
    214  CG        35.9290   80.8490   26.1960 C.3   235  ARG235      0.0489
    215  CD        36.1400   81.6660   24.9240 C.3   235  ARG235      0.2205
    216  NE        36.3750   80.8420   23.7410 N.pl3 235  ARG235     -0.0865
    217  CZ        35.4260   80.1940   23.0730 C.cat 235  ARG235      0.5346
    218  NH1       34.1580   80.2660   23.4640 N.pl3 235  ARG235      0.1354
    219  NH2       35.7460   79.4720   22.0080 N.pl3 235  ARG235      0.1354
@<TRIPOS>BOND
     1    52    51    2
     2    51    50    1
     3    50    53    1
     4    50    49    1
     5    53    54    1
     6    54    55    1
     7    55    56    1
     8    42    41    2
     9    56    57    2
    10    41    40    1
    11    57    58    1
    12    57    59    1
    13    43    40    1
    14    43    44    1
    15    40    39    1
    16   142   141    1
    17    44    45   ar
    18    44    46   ar
    19    45    47   ar
    20   141   143    1
    21   141   140    2
    22   139   140    1
    23   139   138    1
    24    46    48   ar
    25    33    32    2
    26    47    48   ar
    27   138   137    1
    28    81    80    1
    29    32    31    1
    30    80    77    1
    31   137   134    1
    32   127   126    2
    33    79    78    2
    34    78    77    1
    35   150   148    1
    36   178   179    1
    37   178   175    1
    38    31    34    1
    39    31    30    1
    40   134   133    1
    41   134   135    1
    42   160   161    1
    43    34    35    1
    44    77    76    1
    45   126   133   am
    46   126   125    1
    47   174   175    1
    48   174   162   am
    49   161   162    1
    50   161   164    1
    51   132   131    1
    52   128   125    1
    53   128   129    1
    54   159   157    1
    55   145   144    1
    56   145   148    1
    57   145   146    1
    58   175   176    1
    59    37    36   ar
    60   130   131    1
    61   130   129    1
    62   148   149    1
    63   162   163    2
    64   117   115    1
    65   166   168   ar
    66   166   165   ar
    67   135   136    2
    68    76    71   am
    69   125   124    1
    70   164   165    1
    71    35    36    1
    72   146   147    2
    73     9     8    1
    74   168   169   ar
    75    36    38   ar
    76   165   167   ar
    77   116   115    1
    78   114   113    2
    79   157   158    1
    80   157   156    1
    81   115   112    1
    82   176   177    2
    83   176   180   am
    84    63    62    2
    85   149   151    1
    86    71    72    2
    87    71    70    1
    88   124   120   am
    89    69    75    1
    90    69    70    1
    91    62    61    1
    92     8     7    1
    93   112   113    1
    94   112   111    1
    95   192   190    1
    96   190   189    1
    97   180   181    1
    98    75    74    1
    99   156   153    1
   100   169   167   ar
   101   169   171   ar
   102   167   170   ar
   103   155   154    2
   104   153   154    1
   105   153   152    1
   106     7     6    1
   107    60    61    1
   108    70    73    1
   109   121   120    2
   110   120   119    1
   111    61    64    1
   112   185   186    1
   113    73    74    1
   114   110   108   am
   115   111   104   am
   116   171   173   ar
   117   105   104    2
   118    88    87   ar
   119   170   172   ar
   120   186   189    1
   121   186   187    1
   122   189   191    1
   123   181   184    1
   124   181   182    1
   125     6     5    1
   126    89    87   ar
   127   104   103    1
   128    29    27    1
   129     5     2    1
   130   107   108    1
   131   107   106    1
   132    87    86    1
   133   118   119    1
   134   119   122    1
   135   108   109    2
   136    66    65    1
   137    66    67    1
   138   123   122    1
   139    64    65    1
   140   182   183    2
   141   173   172   ar
   142    98    96   ar
   143    98   100   ar
   144    85    84    2
   145    68    67    1
   146    96    95   ar
   147    93    92    2
   148   187   188    2
   149   106   103    1
   150     2     1    1
   151     2     3    1
   152    27    28    1
   153    27    26    2
   154   103   102    1
   155   101   100    1
   156    84    90   am
   157    84    83    1
   158    91    92    1
   159    91    90    1
   160    91    94    1
   161    86    83    1
   162   100    99   ar
   163   219   217    1
   164    95    94    1
   165    95    97   ar
   166    83    82    1
   167   199   197    1
   168    26    25    1
   169     3     4    2
   170     3    10   am
   171    16    15    1
   172    16    17    1
   173    99    97   ar
   174   217   218    1
   175   217   216    2
   176   208   207    1
   177   197   198    1
   178   197   194    1
   179    15    14    1
   180    10    11    1
   181    18    17    1
   182   216   215    1
   183    25    24    1
   184   207   206    1
   185    14    11    1
   186    11    12    1
   187    23    24    1
   188    23    20    1
   189   194   193    1
   190   194   195    1
   191    20    19    1
   192    20    21    1
   193   215   214    1
   194   196   195    2
   195   206   205    1
   196   195   200   am
   197    12    13    2
   198   205   204    1
   199   214   213    1
   200    21    22    2
   201   200   201    1
   202   201   204    1
   203   201   202    1
   204   213   210    1
   205   202   203    2
   206   210   209    1
   207   210   211    1
   208   211   212    2
