@<TRIPOS>MOLECULE
tmp/1t91A00.pdb
 181 175 0 0 0
SMALL
GASTEIGER

@<TRIPOS>ATOM
      1  N         51.2950   41.5310   67.9990 N.3    11  SER11      -0.1202
      2  CA        51.2320   41.9260   69.3910 C.3    11  SER11       0.2020
      3  C         52.2460   41.1390   70.2080 C.2    11  SER11       0.2619
      4  O         52.4010   39.9380   70.0120 O.2    11  SER11      -0.2717
      5  CB        49.8250   41.6770   69.9380 C.3    11  SER11       0.2103
      6  OG        49.7470   42.0850   71.2910 O.3    11  SER11      -0.2182
      7  N         52.9420   41.8310   71.1060 N.am   12  GLY12      -0.1942
      8  CA        53.9140   41.1840   71.9690 C.3    12  GLY12       0.2014
      9  C         55.3350   40.9960   71.4600 C.2    12  GLY12       0.2639
     10  O         56.1970   40.5620   72.2250 O.2    12  GLY12      -0.2714
     11  N         55.5980   41.3130   70.1930 N.am   13  VAL13      -0.1963
     12  CA        56.9470   41.1420   69.6650 C.3    13  VAL13       0.1727
     13  C         57.9500   42.1280   70.2480 C.2    13  VAL13       0.2617
     14  O         59.1530   41.9040   70.1850 O.2    13  VAL13      -0.2715
     15  CB        56.9650   41.2370   68.1210 C.3    13  VAL13       0.0290
     16  CG1       56.0910   40.1330   67.5480 C.3    13  VAL13       0.0023
     17  CG2       56.4770   42.6150   67.6600 C.3    13  VAL13       0.0023
     18  N         57.4590   43.2100   70.8370 N.am   14  GLY14      -0.1940
     19  CA        58.3580   44.1810   71.4390 C.3    14  GLY14       0.2014
     20  C         58.5300   45.5130   70.7200 C.2    14  GLY14       0.2639
     21  O         59.5290   46.2020   70.9370 O.2    14  GLY14      -0.2714
     22  N         57.5760   45.8840   69.8730 N.am   15  LYS15      -0.1963
     23  CA        57.6640   47.1590   69.1500 C.3    15  LYS15       0.1728
     24  C         57.8210   48.3270   70.1170 C.2    15  LYS15       0.2617
     25  O         58.7600   49.1150   70.0130 O.2    15  LYS15      -0.2715
     26  CB        56.4170   47.3660   68.2840 C.3    15  LYS15       0.0311
     27  CG        56.2500   46.3140   67.1880 C.3    15  LYS15       0.0038
     28  CD        55.0170   46.5590   66.3460 C.3    15  LYS15       0.0206
     29  CE        53.7400   46.5470   67.2090 C.3    15  LYS15       0.1093
     30  NZ        53.5080   45.2250   67.8510 N.3    15  LYS15      -0.1314
     31  N         56.9070   48.4350   71.0740 N.am   16  THR16      -0.1937
     32  CA        56.9760   49.5250   72.0470 C.3    16  THR16       0.2028
     33  C         58.2730   49.4920   72.8660 C.2    16  THR16       0.2642
     34  O         58.8810   50.5300   73.1080 O.2    16  THR16      -0.2714
     35  CB        55.7560   49.4900   73.0000 C.3    16  THR16       0.1808
     36  OG1       54.5510   49.5820   72.2300 O.3    16  THR16      -0.2208
     37  CG2       55.8050   50.6620   73.9940 C.3    16  THR16       0.0379
     38  N         58.7130   48.3040   73.2750 N.am   17  SER17      -0.1949
     39  CA        59.9460   48.1880   74.0620 C.3    17  SER17       0.1924
     40  C         61.1400   48.7070   73.2760 C.2    17  SER17       0.2314
     41  O         61.9850   49.4340   73.8070 O.2    17  SER17      -0.2863
     42  CB        60.2070   46.7300   74.4620 C.3    17  SER17       0.2116
     43  OG        59.2940   46.2880   75.4430 O.3    17  SER17      -0.2180
     44  N         63.4350   50.2000   79.6590 N.3    27  PHE27      -0.1227
     45  CA        62.7600   48.9410   79.3750 C.3    27  PHE27       0.1736
     46  C         61.9120   48.5370   80.5710 C.2    27  PHE27       0.2596
     47  O         62.2730   48.7910   81.7170 O.2    27  PHE27      -0.2718
     48  CB        63.7610   47.8190   79.1010 C.3    27  PHE27       0.0547
     49  CG        63.1110   46.4800   78.8510 C.ar   27  PHE27      -0.0202
     50  CD1       62.5320   46.1910   77.6140 C.ar   27  PHE27      -0.0042
     51  CD2       63.0500   45.5220   79.8580 C.ar   27  PHE27      -0.0042
     52  CE1       61.9010   44.9700   77.3830 C.ar   27  PHE27      -0.0003
     53  CE2       62.4200   44.2950   79.6380 C.ar   27  PHE27      -0.0003
     54  CZ        61.8430   44.0180   78.3950 C.ar   27  PHE27      -0.0000
     55  N         60.7900   47.8890   80.2990 N.am   28  SER28      -0.1938
     56  CA        59.9040   47.4440   81.3600 C.3    28  SER28       0.2055
     57  C         59.3560   46.0600   81.0320 C.2    28  SER28       0.2643
     58  O         58.8290   45.8410   79.9430 O.2    28  SER28      -0.2714
     59  CB        58.7520   48.4380   81.5250 C.3    28  SER28       0.2130
     60  OG        57.8840   48.0330   82.5640 O.3    28  SER28      -0.2179
     61  N         59.4870   45.1230   81.9660 N.am   29  ASN29      -0.1971
     62  CA        58.9810   43.7780   81.7320 C.3    29  ASN29       0.1688
     63  C         57.4610   43.7510   81.7850 C.2    29  ASN29       0.2292
     64  O         56.8410   42.7920   81.3270 O.2    29  ASN29      -0.2864
     65  CB        59.5440   42.7830   82.7510 C.3    29  ASN29       0.1181
     66  CG        60.9930   42.4250   82.4780 C.2    29  ASN29       0.2629
     67  OD1       61.9100   43.0860   82.9580 O.2    29  ASN29      -0.2716
     68  ND2       61.2030   41.3810   81.6860 N.am   29  ASN29      -0.0877
     69  N         53.8800   44.3990   80.6240 N.3    31  TYR31      -0.1227
     70  CA        53.2440   44.5950   79.3320 C.3    31  TYR31       0.1736
     71  C         52.0290   45.5210   79.3640 C.2    31  TYR31       0.2595
     72  O         51.1130   45.3460   80.1670 O.2    31  TYR31      -0.2718
     73  CB        52.8460   43.2350   78.7460 C.3    31  TYR31       0.0548
     74  CG        52.0190   43.3130   77.4820 C.ar   31  TYR31      -0.0200
     75  CD1       52.4800   44.0010   76.3620 C.ar   31  TYR31      -0.0009
     76  CD2       50.7680   42.7010   77.4110 C.ar   31  TYR31      -0.0009
     77  CE1       51.7160   44.0790   75.2020 C.ar   31  TYR31       0.0417
     78  CE2       49.9930   42.7730   76.2560 C.ar   31  TYR31       0.0417
     79  CZ        50.4720   43.4640   75.1560 C.ar   31  TYR31       0.1957
     80  OH        49.7010   43.5470   74.0190 O.3    31  TYR31      -0.2866
     81  N         52.0440   46.5180   78.4830 N.am   32  LYS32      -0.1966
     82  CA        50.9490   47.4710   78.3530 C.3    32  LYS32       0.1728
     83  C         50.6500   47.5420   76.8630 C.2    32  LYS32       0.2616
     84  O         51.3830   48.1820   76.1150 O.2    32  LYS32      -0.2715
     85  CB        51.3650   48.8560   78.8590 C.3    32  LYS32       0.0311
     86  CG        51.7610   48.9010   80.3250 C.3    32  LYS32       0.0038
     87  CD        52.3200   50.2730   80.7000 C.3    32  LYS32       0.0206
     88  CE        52.8470   50.2960   82.1300 C.3    32  LYS32       0.1093
     89  NZ        53.5550   51.5730   82.4300 N.3    32  LYS32      -0.1314
     90  N         49.5790   46.8790   76.4380 N.am   33  ALA33      -0.1963
     91  CA        49.1960   46.8480   75.0310 C.3    33  ALA33       0.1728
     92  C         49.0410   48.2350   74.4260 C.2    33  ALA33       0.2616
     93  O         48.4730   49.1360   75.0350 O.2    33  ALA33      -0.2715
     94  CB        47.9010   46.0630   74.8550 C.3    33  ALA33       0.0334
     95  N         49.5600   48.4000   73.2160 N.am   34  THR34      -0.1951
     96  CA        49.4570   49.6700   72.5200 C.3    34  THR34       0.1897
     97  C         48.1040   49.7630   71.8290 C.2    34  THR34       0.2313
     98  O         47.6640   48.8170   71.1770 O.2    34  THR34      -0.2863
     99  CB        50.5650   49.8030   71.4680 C.3    34  THR34       0.1794
    100  OG1       51.8360   49.7610   72.1220 O.3    34  THR34      -0.2208
    101  CG2       50.4210   51.1200   70.6960 C.3    34  THR34       0.0378
    102  N         54.6690   54.1370   66.7790 N.3    57  ASP57      -0.1225
    103  CA        54.4130   52.8620   67.4150 C.3    57  ASP57       0.1805
    104  C         52.9520   52.5480   67.0940 C.2    57  ASP57       0.2598
    105  O         52.0960   53.4340   67.1550 O.2    57  ASP57      -0.2718
    106  CB        54.6220   52.9930   68.9250 C.3    57  ASP57       0.1424
    107  CG        54.6430   51.6530   69.6350 C.2    57  ASP57       0.3668
    108  OD1       54.6000   50.5960   68.9600 O.co2  57  ASP57      -0.2456
    109  OD2       54.7070   51.6660   70.8790 O.co2  57  ASP57      -0.2456
    110  N         52.6690   51.2980   66.7480 N.am   58  THR58      -0.1953
    111  CA        51.3150   50.8960   66.3760 C.3    58  THR58       0.1897
    112  C         50.7860   49.7110   67.1900 C.2    58  THR58       0.2313
    113  O         51.5420   49.0260   67.8660 O.2    58  THR58      -0.2863
    114  CB        51.2780   50.5010   64.8990 C.3    58  THR58       0.1794
    115  OG1       52.1100   49.3480   64.7080 O.3    58  THR58      -0.2208
    116  CG2       51.8080   51.6390   64.0350 C.3    58  THR58       0.0378
    117  N         49.5840   46.0650   67.7240 N.3    60  GLY60      -0.1210
    118  CA        49.7790   44.7860   67.0700 C.3    60  GLY60       0.1956
    119  C         48.4730   44.0120   67.0300 C.2    60  GLY60       0.2611
    120  O         48.2210   43.2500   66.0930 O.2    60  GLY60      -0.2717
    121  N         47.6400   44.2110   68.0510 N.am   61  LEU61      -0.1979
    122  CA        46.3410   43.5470   68.1400 C.3    61  LEU61       0.1596
    123  C         45.3300   44.2610   67.2470 C.2    61  LEU61       0.2287
    124  O         45.1470   45.4720   67.3520 O.2    61  LEU61      -0.2864
    125  CB        45.8280   43.5510   69.5880 C.3    61  LEU61       0.0297
    126  CG        46.4950   42.6410   70.6250 C.3    61  LEU61       0.0022
    127  CD1       45.8930   42.9060   71.9900 C.3    61  LEU61       0.0001
    128  CD2       46.3090   41.1760   70.2440 C.3    61  LEU61       0.0001
    129  N         63.4920   40.3330   67.2790 N.3   119  ASN119     -0.1225
    130  CA        63.6390   40.7270   68.6710 C.3   119  ASN119      0.1785
    131  C         63.5700   39.5960   69.7060 C.2   119  ASN119      0.2597
    132  O         63.1350   38.4830   69.4120 O.2   119  ASN119     -0.2718
    133  CB        62.5730   41.7900   68.9860 C.3   119  ASN119      0.1169
    134  CG        62.8210   42.5100   70.3030 C.2   119  ASN119      0.2627
    135  OD1       63.9250   42.9680   70.5710 O.2   119  ASN119     -0.2716
    136  ND2       61.7730   42.6350   71.1220 N.am  119  ASN119     -0.0877
    137  N         63.9950   39.9290   70.9220 N.am  120  LYS120     -0.1980
    138  CA        64.0000   39.0160   72.0630 C.3   120  LYS120      0.1596
    139  C         65.0570   37.9210   71.9690 C.2   120  LYS120      0.2287
    140  O         64.8260   36.7960   72.4120 O.2   120  LYS120     -0.2864
    141  CB        62.6260   38.3700   72.2480 C.3   120  LYS120      0.0298
    142  CG        61.4870   39.3620   72.4240 C.3   120  LYS120      0.0038
    143  CD        60.2840   38.7010   73.0900 C.3   120  LYS120      0.0206
    144  CE        59.0960   39.6520   73.1780 C.3   120  LYS120      0.1093
    145  NZ        57.9050   39.0140   73.8240 N.3   120  LYS120     -0.1314
    146  N         67.5980   37.6420   73.6500 N.3   122  ASP122     -0.1225
    147  CA        68.1010   37.3610   74.9950 C.3   122  ASP122      0.1805
    148  C         67.4480   36.1360   75.6250 C.2   122  ASP122      0.2597
    149  O         67.9620   35.5900   76.6030 O.2   122  ASP122     -0.2718
    150  CB        67.8610   38.5560   75.9060 C.3   122  ASP122      0.1424
    151  CG        66.4050   38.9680   75.9370 C.2   122  ASP122      0.3668
    152  OD1       65.9080   39.4410   74.8910 O.co2 122  ASP122     -0.2456
    153  OD2       65.7540   38.8060   76.9960 O.co2 122  ASP122     -0.2456
    154  N         66.3120   35.7150   75.0800 N.am  123  LEU123     -0.1979
    155  CA        65.6010   34.5530   75.6030 C.3   123  LEU123      0.1596
    156  C         66.2360   33.2620   75.0920 C.2   123  LEU123      0.2287
    157  O         66.6710   33.1790   73.9420 O.2   123  LEU123     -0.2864
    158  CB        64.1240   34.6140   75.2020 C.3   123  LEU123      0.0297
    159  CG        63.3190   35.7760   75.7940 C.3   123  LEU123      0.0022
    160  CD1       61.8710   35.7120   75.2990 C.3   123  LEU123      0.0001
    161  CD2       63.3740   35.7020   77.3290 C.3   123  LEU123      0.0001
    162  N         67.4940   42.8530   71.0330 N.3   149  SER149     -0.1202
    163  CA        66.9950   42.5810   72.3690 C.3   149  SER149      0.2020
    164  C         66.7030   43.9380   72.9810 C.2   149  SER149      0.2619
    165  O         67.6250   44.6860   73.3110 O.2   149  SER149     -0.2717
    166  CB        68.0310   41.8590   73.2360 C.3   149  SER149      0.2103
    167  OG        67.5330   41.7280   74.5650 O.3   149  SER149     -0.2182
    168  N         65.4230   44.2670   73.1130 N.am  150  ALA150     -0.1965
    169  CA        65.0350   45.5370   73.7080 C.3   150  ALA150      0.1728
    170  C         65.3570   45.4820   75.2020 C.2   150  ALA150      0.2616
    171  O         65.7450   46.4790   75.8070 O.2   150  ALA150     -0.2715
    172  CB        63.5370   45.7810   73.4990 C.3   150  ALA150      0.0334
    173  N         65.2020   44.3010   75.7900 N.am  151  LYS151     -0.1977
    174  CA        65.4690   44.1130   77.2110 C.3   151  LYS151      0.1596
    175  C         66.9410   44.2830   77.5890 C.2   151  LYS151      0.2287
    176  O         67.2550   44.9270   78.5850 O.2   151  LYS151     -0.2864
    177  CB        64.9820   42.7340   77.6640 C.3   151  LYS151      0.0298
    178  CG        65.1450   42.4910   79.1650 C.3   151  LYS151      0.0038
    179  CD        64.4270   41.2300   79.6230 C.3   151  LYS151      0.0206
    180  CE        64.4020   41.1330   81.1490 C.3   151  LYS151      0.1093
    181  NZ        65.7840   41.0960   81.7160 N.3   151  LYS151     -0.1314
@<TRIPOS>BOND
     1   116   114    1
     2   115   114    1
     3   114   111    1
     4   120   119    2
     5    28    27    1
     6    28    29    1
     7   111   110    1
     8   111   112    1
     9   110   104   am
    10   102   103    1
    11   119   118    1
    12   119   121   am
    13   118   117    1
    14   104   105    2
    15   104   103    1
    16    27    26    1
    17   112   113    2
    18    29    30    1
    19   123   124    2
    20   123   122    1
    21   129   130    1
    22   103   106    1
    23    16    15    1
    24    17    15    1
    25     1     2    1
    26   121   122    1
    27    15    12    1
    28   122   125    1
    29    26    23    1
    30   130   133    1
    31   130   131    1
    32   106   107    1
    33   108   107   ar
    34   133   134    1
    35    23    22    1
    36    23    24    1
    37     2     5    1
    38     2     3    1
    39   132   131    2
    40   125   126    1
    41   107   109   ar
    42    12    11    1
    43    12    13    1
    44   131   137   am
    45    22    20   am
    46     5     6    1
    47     4     3    2
    48    25    24    2
    49    24    31   am
    50    14    13    2
    51    11     9   am
    52     3     7   am
    53   128   126    1
    54    13    18   am
    55   134   135    2
    56   134   136   am
    57   126   127    1
    58   101    99    1
    59    20    21    2
    60    20    19    1
    61    18    19    1
    62   137   138    1
    63   162   163    1
    64    31    32    1
    65     7     8    1
    66    98    97    2
    67     9     8    1
    68     9    10    2
    69    99   100    1
    70    99    96    1
    71    97    96    1
    72   139   138    1
    73   139   140    2
    74    32    33    1
    75    32    35    1
    76   138   141    1
    77    36    35    1
    78   141   142    1
    79   163   164    1
    80   163   166    1
    81   142   143    1
    82    96    95    1
    83    33    34    2
    84    33    38   am
    85   164   168   am
    86   164   165    2
    87    35    37    1
    88   143   144    1
    89   168   169    1
    90   144   145    1
    91    95    92   am
    92   166   167    1
    93    38    39    1
    94    40    41    2
    95    40    39    1
    96   172   169    1
    97   146   147    1
    98   169   170    1
    99   157   156    2
   100    80    79    1
   101    39    42    1
   102    92    91    1
   103    92    93    2
   104    42    43    1
   105    94    91    1
   106   152   151   ar
   107   147   148    1
   108   147   150    1
   109    91    90    1
   110   154   155    1
   111   154   148   am
   112   156   155    1
   113    79    77   ar
   114    79    78   ar
   115   158   155    1
   116   158   159    1
   117   170   173   am
   118   170   171    2
   119    77    75   ar
   120   160   159    1
   121   148   149    2
   122   173   174    1
   123   159   161    1
   124   150   151    1
   125   151   153   ar
   126    84    83    2
   127    78    76   ar
   128    75    74   ar
   129    90    83   am
   130    83    82    1
   131   174   175    1
   132   174   177    1
   133    52    50   ar
   134    52    54   ar
   135    76    74   ar
   136    74    73    1
   137   175   176    2
   138    50    49   ar
   139   177   178    1
   140    82    81    1
   141    82    85    1
   142    54    53   ar
   143    81    71   am
   144    73    70    1
   145    49    48    1
   146    49    51   ar
   147    85    86    1
   148    48    45    1
   149   178   179    1
   150    70    71    1
   151    70    69    1
   152    71    72    2
   153    45    44    1
   154    45    46    1
   155   179   180    1
   156    53    51   ar
   157    58    57    2
   158    55    46   am
   159    55    56    1
   160    86    87    1
   161    46    47    2
   162    87    88    1
   163    57    56    1
   164    57    61   am
   165   180   181    1
   166    64    63    2
   167    56    59    1
   168    59    60    1
   169    68    66   am
   170    62    63    1
   171    62    61    1
   172    62    65    1
   173    88    89    1
   174    66    65    1
   175    66    67    2
