@<TRIPOS>MOLECULE
tmp/1t9aA05.pdb
 86 79 0 0 0
SMALL
GASTEIGER

@<TRIPOS>ATOM
      1  N         13.3580  115.5400   54.7950 N.3    57  GLN57      -0.1245
      2  CA        12.1720  114.9690   55.4140 C.3    57  GLN57       0.1566
      3  C         12.5550  114.6280   56.8430 C.2    57  GLN57       0.2260
      4  O         11.7410  114.7270   57.7590 O.2    57  GLN57      -0.2867
      5  CB        11.7180  113.7000   54.6890 C.3    57  GLN57       0.0367
      6  CG        10.3930  113.1510   55.2200 C.3    57  GLN57       0.0905
      7  CD        10.0510  111.7710   54.6950 C.2    57  GLN57       0.2608
      8  OE1       10.5330  111.3520   53.6440 O.2    57  GLN57      -0.2717
      9  NE2        9.1930  111.0620   55.4190 N.am   57  GLN57      -0.0878
     10  N          5.8660  116.6300   53.1730 N.3    89  THR89      -0.1218
     11  CA         5.2720  115.5850   54.0030 C.3    89  THR89       0.1862
     12  C          5.3130  115.9780   55.4810 C.2    89  THR89       0.2287
     13  O          4.2960  115.9040   56.1710 O.2    89  THR89      -0.2866
     14  CB         5.9850  114.2300   53.8130 C.3    89  THR89       0.1770
     15  OG1        5.6930  113.7180   52.5070 O.3    89  THR89      -0.2211
     16  CG2        5.5120  113.2240   54.8570 C.3    89  THR89       0.0375
     17  N          4.1830  103.9090   61.5930 N.3   407  VAL407     -0.1231
     18  CA         2.7570  103.8010   61.3450 C.3   407  VAL407      0.1692
     19  C          2.3620  102.3780   60.9960 C.2   407  VAL407      0.2592
     20  O          2.9760  101.7560   60.1410 O.2   407  VAL407     -0.2718
     21  CB         2.3420  104.7430   60.2070 C.3   407  VAL407      0.0266
     22  CG1        0.8690  104.5520   59.8610 C.3   407  VAL407      0.0020
     23  CG2        2.6150  106.1800   60.6310 C.3   407  VAL407      0.0020
     24  N          1.3350  101.8680   61.6650 N.am  408  GLY408     -0.1957
     25  CA         0.8860  100.5140   61.4100 C.3   408  GLY408      0.1869
     26  C          0.4740   99.7580   62.6560 C.2   408  GLY408      0.2309
     27  O          0.1630  100.3540   63.6900 O.2   408  GLY408     -0.2863
     28  N         -2.1270  112.1300   59.4520 N.3   432  LEU432     -0.1231
     29  CA        -1.6520  111.7940   58.1180 C.3   432  LEU432      0.1693
     30  C         -1.1130  110.3640   58.1250 C.2   432  LEU432      0.2593
     31  O         -1.1820  109.6630   57.1160 O.2   432  LEU432     -0.2718
     32  CB        -0.5540  112.7740   57.6850 C.3   432  LEU432      0.0284
     33  CG        -0.1490  112.7480   56.2060 C.3   432  LEU432      0.0019
     34  CD1       -1.2780  113.3190   55.3580 C.3   432  LEU432      0.0001
     35  CD2        1.1210  113.5540   55.9990 C.3   432  LEU432      0.0001
     36  N         -0.5840  109.9400   59.2720 N.am  433  GLY433     -0.1942
     37  CA        -0.0500  108.5960   59.4000 C.3   433  GLY433      0.2014
     38  C          1.1290  108.3760   58.4780 C.2   433  GLY433      0.2640
     39  O          1.0610  107.5880   57.5390 O.2   433  GLY433     -0.2714
     40  N          2.2240  109.0680   58.7600 N.am  434  THR434     -0.1936
     41  CA         3.4200  108.9770   57.9360 C.3   434  THR434      0.2028
     42  C          4.4250  107.9080   58.3450 C.2   434  THR434      0.2642
     43  O          5.0860  108.0330   59.3700 O.2   434  THR434     -0.2714
     44  CB         4.1610  110.3220   57.9220 C.3   434  THR434      0.1808
     45  OG1        3.2500  111.3560   57.5440 O.3   434  THR434     -0.2208
     46  CG2        5.3230  110.2870   56.9420 C.3   434  THR434      0.0379
     47  N          4.5530  106.8640   57.5370 N.am  435  MET435     -0.1976
     48  CA         5.5320  105.8220   57.8180 C.3   435  MET435      0.1605
     49  C          6.9110  106.4770   57.7290 C.2   435  MET435      0.2287
     50  O          7.1490  107.3110   56.8530 O.2   435  MET435     -0.2864
     51  CB         5.4320  104.7000   56.7830 C.3   435  MET435      0.0413
     52  CG         4.2020  103.8200   56.9230 C.3   435  MET435      0.0598
     53  SD         4.0330  102.6750   55.5330 S.3   435  MET435     -0.1393
     54  CE         5.4990  101.6240   55.7580 C.3   435  MET435      0.0692
     55  N         11.6220  103.4690   55.3560 N.3   465  MET465     -0.1245
     56  CA        11.3770  104.7750   54.7540 C.3   465  MET465      0.1570
     57  C         12.4700  105.7900   55.0720 C.2   465  MET465      0.2261
     58  O         12.9400  106.5020   54.1870 O.2   465  MET465     -0.2867
     59  CB        10.0300  105.3380   55.2310 C.3   465  MET465      0.0387
     60  CG         8.7960  104.6000   54.7290 C.3   465  MET465      0.0595
     61  SD         8.0390  105.4130   53.3140 S.3   465  MET465     -0.1393
     62  CE         6.7870  104.2420   52.8130 C.3   465  MET465      0.0692
     63  N          3.8530   94.7950   55.6320 N.3   490  GLN490     -0.1245
     64  CA         3.2220   96.0710   55.9220 C.3   490  GLN490      0.1566
     65  C          1.9440   95.6180   56.6210 C.2   490  GLN490      0.2260
     66  O          0.8650   95.5710   56.0250 O.2   490  GLN490     -0.2867
     67  CB         2.9020   96.8110   54.6260 C.3   490  GLN490      0.0367
     68  CG         4.1430   97.2470   53.8690 C.3   490  GLN490      0.0905
     69  CD         3.8380   97.6910   52.4530 C.2   490  GLN490      0.2608
     70  OE1        2.9290   98.4970   52.2290 O.2   490  GLN490     -0.2717
     71  NE2        4.6050   97.1760   51.4860 N.am  490  GLN490     -0.0878
     72  N         -0.4850   96.6520   58.8120 N.3   492  MET492     -0.1230
     73  CA        -1.7980   97.2760   58.7730 C.3   492  MET492      0.1702
     74  C         -2.4810   97.0750   57.4260 C.2   492  MET492      0.2592
     75  O         -3.7010   96.9210   57.3630 O.2   492  MET492     -0.2718
     76  CB        -1.6960   98.7720   59.1120 C.3   492  MET492      0.0401
     77  CG        -3.0160   99.4200   59.5370 C.3   492  MET492      0.0596
     78  SD        -3.8570   98.5760   60.9260 S.3   492  MET492     -0.1393
     79  CE        -3.0010   99.2690   62.3250 C.3   492  MET492      0.0692
     80  N         -1.6990   97.0560   56.3510 N.am  493  VAL493     -0.1980
     81  CA        -2.2660   96.8620   55.0240 C.3   493  VAL493      0.1595
     82  C         -2.6280   95.4020   54.7880 C.2   493  VAL493      0.2287
     83  O         -3.7040   95.1050   54.2660 O.2   493  VAL493     -0.2864
     84  CB        -1.3030   97.3270   53.9200 C.3   493  VAL493      0.0276
     85  CG1       -1.9620   97.1780   52.5570 C.3   493  VAL493      0.0022
     86  CG2       -0.9310   98.7710   54.1480 C.3   493  VAL493      0.0022
@<TRIPOS>BOND
     1    71    69   am
     2    70    69    2
     3    69    68    1
     4    15    14    1
     5    85    84    1
     6    62    61    1
     7    10    11    1
     8    61    60    1
     9     8     7    2
    10    14    11    1
    11    14    16    1
    12    68    67    1
    13    84    86    1
    14    84    81    1
    15    11    12    1
    16    58    57    2
    17    83    82    2
    18    67    64    1
    19     5     6    1
    20     5     2    1
    21     7     6    1
    22     7     9   am
    23    60    59    1
    24    56    57    1
    25    56    59    1
    26    56    55    1
    27    82    81    1
    28     1     2    1
    29    81    80    1
    30    34    33    1
    31     2     3    1
    32    12    13    2
    33    53    54    1
    34    53    52    1
    35    63    64    1
    36    64    65    1
    37    35    33    1
    38    66    65    2
    39    33    32    1
    40    80    74   am
    41    51    52    1
    42    51    48    1
    43     3     4    2
    44    50    49    2
    45    46    44    1
    46    31    30    2
    47    75    74    2
    48    74    73    1
    49    47    48    1
    50    47    42   am
    51    39    38    2
    52    45    44    1
    53    32    29    1
    54    49    48    1
    55    44    41    1
    56    41    42    1
    57    41    40    1
    58    29    30    1
    59    29    28    1
    60    30    36   am
    61    42    43    2
    62    38    40   am
    63    38    37    1
    64    73    72    1
    65    73    76    1
    66    76    77    1
    67    36    37    1
    68    77    78    1
    69    22    21    1
    70    20    19    2
    71    21    23    1
    72    21    18    1
    73    78    79    1
    74    19    18    1
    75    19    24   am
    76    18    17    1
    77    25    24    1
    78    25    26    1
    79    26    27    2
