@<TRIPOS>MOLECULE
tmp/1t9aB02.pdb
 82 75 0 0 0
SMALL
GASTEIGER

@<TRIPOS>ATOM
      1  N          9.3880  108.4000   47.2330 N.3    57  GLN57      -0.1245
      2  CA        10.2820  109.2940   46.5090 C.3    57  GLN57       0.1566
      3  C         11.0770  108.3960   45.5590 C.2    57  GLN57       0.2260
      4  O         11.3530  108.7610   44.4110 O.2    57  GLN57      -0.2867
      5  CB        11.2390  110.0080   47.4660 C.3    57  GLN57       0.0367
      6  CG        12.0280  111.1440   46.8210 C.3    57  GLN57       0.0905
      7  CD        13.1940  111.6090   47.6760 C.2    57  GLN57       0.2608
      8  OE1       13.2530  111.3270   48.8740 O.2    57  GLN57      -0.2717
      9  NE2       14.1280  112.3350   47.0650 N.am   57  GLN57      -0.0878
     10  N          8.5020  115.7770   45.3500 N.3    89  THR89      -0.1218
     11  CA         9.8270  116.0950   44.8300 C.3    89  THR89       0.1862
     12  C         10.0420  115.4980   43.4360 C.2    89  THR89       0.2287
     13  O         10.5110  116.1850   42.5300 O.2    89  THR89      -0.2866
     14  CB        10.9450  115.6200   45.7920 C.3    89  THR89       0.1770
     15  OG1       10.8860  116.3820   47.0060 O.3    89  THR89      -0.2211
     16  CG2       12.3230  115.8100   45.1520 C.3    89  THR89       0.0375
     17  N         23.7050  114.8350   42.6630 N.3   403  VAL403     -0.1245
     18  CA        23.8350  116.2500   42.3570 C.3   403  VAL403      0.1561
     19  C         25.0610  116.8330   43.0400 C.2   403  VAL403      0.2260
     20  O         25.2930  116.6060   44.2280 O.2   403  VAL403     -0.2867
     21  CB        22.5700  117.0310   42.7870 C.3   403  VAL403      0.0252
     22  CG1       22.8110  118.5310   42.6950 C.3   403  VAL403      0.0019
     23  CG2       21.4040  116.6350   41.8930 C.3   403  VAL403      0.0019
     24  N         15.8370  120.8910   38.6950 N.3   428  LEU428     -0.1231
     25  CA        15.6100  120.9890   40.1270 C.3   428  LEU428      0.1693
     26  C         16.8810  120.6180   40.8840 C.2   428  LEU428      0.2593
     27  O         17.1180  121.1120   41.9850 O.2   428  LEU428     -0.2718
     28  CB        14.4520  120.0710   40.5420 C.3   428  LEU428      0.0284
     29  CG        13.8640  120.2950   41.9380 C.3   428  LEU428      0.0019
     30  CD1       13.2680  121.7060   42.0170 C.3   428  LEU428      0.0001
     31  CD2       12.8000  119.2420   42.2310 C.3   428  LEU428      0.0001
     32  N         17.6990  119.7560   40.2830 N.am  429  GLY429     -0.1942
     33  CA        18.9410  119.3350   40.9100 C.3   429  GLY429      0.2014
     34  C         18.6990  118.6180   42.2250 C.2   429  GLY429      0.2640
     35  O         19.1390  119.0770   43.2800 O.2   429  GLY429     -0.2714
     36  N         18.0120  117.4810   42.1510 N.am  430  THR430     -0.1936
     37  CA        17.6680  116.6990   43.3330 C.3   430  THR430      0.2028
     38  C         18.7020  115.6820   43.8040 C.2   430  THR430      0.2642
     39  O         18.9120  114.6530   43.1550 O.2   430  THR430     -0.2714
     40  CB        16.3650  115.9120   43.1140 C.3   430  THR430      0.1808
     41  OG1       15.3670  116.7710   42.5530 O.3   430  THR430     -0.2208
     42  CG2       15.8670  115.3480   44.4390 C.3   430  THR430      0.0379
     43  N         19.3270  115.9510   44.9450 N.am  431  MET431     -0.1976
     44  CA        20.2940  115.0140   45.5050 C.3   431  MET431      0.1605
     45  C         19.5470  113.7170   45.8250 C.2   431  MET431      0.2287
     46  O         18.3810  113.7520   46.2020 O.2   431  MET431     -0.2864
     47  CB        20.9100  115.5820   46.7820 C.3   431  MET431      0.0413
     48  CG        21.9180  116.6880   46.5400 C.3   431  MET431      0.0598
     49  SD        22.4380  117.4660   48.0760 S.3   431  MET431     -0.1393
     50  CE        23.4120  116.1530   48.8160 C.3   431  MET431      0.0692
     51  N         20.9310  110.4940   50.9430 N.3   461  MET461     -0.1245
     52  CA        19.5350  110.8930   50.8230 C.3   461  MET461      0.1570
     53  C         18.5620  109.7570   50.5420 C.2   461  MET461      0.2261
     54  O         17.4910  109.6890   51.1450 O.2   461  MET461     -0.2867
     55  CB        19.3820  111.9470   49.7200 C.3   461  MET461      0.0387
     56  CG        20.0170  113.2880   50.0370 C.3   461  MET461      0.0595
     57  SD        18.7790  114.5580   50.3160 S.3   461  MET461     -0.1393
     58  CE        19.7370  115.8420   51.0970 C.3   461  MET461      0.0692
     59  N         29.8810  118.2200   51.0500 N.3   486  GLN486     -0.1245
     60  CA        28.8960  118.7010   50.0960 C.3   486  GLN486      0.1566
     61  C         29.7240  119.5240   49.1190 C.2   486  GLN486      0.2260
     62  O         29.7040  120.7550   49.1610 O.2   486  GLN486     -0.2867
     63  CB        27.8810  119.5960   50.8010 C.3   486  GLN486      0.0367
     64  CG        26.5790  118.9140   51.1770 C.3   486  GLN486      0.0905
     65  CD        25.7870  119.7050   52.2100 C.2   486  GLN486      0.2608
     66  OE1       25.8820  119.4550   53.4130 O.2   486  GLN486     -0.2717
     67  NE2       25.0150  120.6780   51.7480 N.am  486  GLN486     -0.0878
     68  N         29.7840  120.7920   45.9640 N.3   488  MET488     -0.1230
     69  CA        29.2960  122.0000   45.3050 C.3   488  MET488      0.1702
     70  C         29.0640  123.1770   46.2540 C.2   488  MET488      0.2592
     71  O         29.3150  124.3280   45.8920 O.2   488  MET488     -0.2718
     72  CB        28.0110  121.6910   44.5290 C.3   488  MET488      0.0401
     73  CG        27.7620  122.6030   43.3310 C.3   488  MET488      0.0596
     74  SD        29.0180  122.4390   42.0220 S.3   488  MET488     -0.1393
     75  CE        30.1520  123.7590   42.4640 C.3   488  MET488      0.0692
     76  N         28.5900  122.8940   47.4630 N.am  489  VAL489     -0.1980
     77  CA        28.3360  123.9540   48.4340 C.3   489  VAL489      0.1595
     78  C         29.6260  124.4580   49.0810 C.2   489  VAL489      0.2287
     79  O         29.8100  125.6650   49.2440 O.2   489  VAL489     -0.2864
     80  CB        27.3640  123.4830   49.5440 C.3   489  VAL489      0.0276
     81  CG1       27.1120  124.6080   50.5330 C.3   489  VAL489      0.0022
     82  CG2       26.0600  123.0520   48.9300 C.3   489  VAL489      0.0022
@<TRIPOS>BOND
     1    24    25    1
     2    25    28    1
     3    25    26    1
     4    32    26   am
     5    32    33    1
     6    28    29    1
     7    26    27    2
     8    33    34    1
     9    23    21    1
    10    29    30    1
    11    29    31    1
    12    74    75    1
    13    74    73    1
    14    36    34   am
    15    36    37    1
    16    34    35    2
    17    18    17    1
    18    18    21    1
    19    18    19    1
    20    13    12    2
    21    41    40    1
    22    22    21    1
    23    19    20    2
    24    40    37    1
    25    40    42    1
    26    39    38    2
    27    73    72    1
    28    37    38    1
    29    12    11    1
    30    38    43   am
    31     4     3    2
    32    72    69    1
    33    11    10    1
    34    11    14    1
    35    43    44    1
    36    16    14    1
    37    69    68    1
    38    69    70    1
    39    44    45    1
    40    44    47    1
    41     3     2    1
    42    14    15    1
    43    45    46    2
    44    71    70    2
    45    70    76   am
    46     2     1    1
    47     2     5    1
    48    48    47    1
    49    48    49    1
    50     6     5    1
    51     6     7    1
    52     9     7   am
    53    76    77    1
    54     7     8    2
    55    49    50    1
    56    77    78    1
    57    77    80    1
    58    82    80    1
    59    78    79    2
    60    61    62    2
    61    61    60    1
    62    80    81    1
    63    55    56    1
    64    55    52    1
    65    56    57    1
    66    60    63    1
    67    60    59    1
    68    57    58    1
    69    53    52    1
    70    53    54    2
    71    63    64    1
    72    52    51    1
    73    64    65    1
    74    67    65   am
    75    65    66    2
