@<TRIPOS>MOLECULE
tmp/1t9aB00.pdb
 80 75 0 0 0
SMALL
GASTEIGER

@<TRIPOS>ATOM
      1  N         -1.2200  101.3020   49.9000 N.3    32  GLY32      -0.1210
      2  CA        -1.7280  102.0520   51.0290 C.3    32  GLY32       0.1956
      3  C         -3.2250  101.8430   51.1040 C.2    32  GLY32       0.2612
      4  O         -3.8230  101.2920   50.1770 O.2    32  GLY32      -0.2717
      5  N         -3.8360  102.2910   52.1940 N.am   33  GLY33      -0.1942
      6  CA        -5.2660  102.1170   52.3660 C.3    33  GLY33       0.2014
      7  C         -6.1470  102.6180   51.2340 C.2    33  GLY33       0.2638
      8  O         -6.8270  101.8340   50.5770 O.2    33  GLY33      -0.2714
      9  N         -6.1360  103.9270   51.0060 N.am   34  ALA34      -0.1977
     10  CA        -6.9610  104.5460   49.9730 C.3    34  ALA34       0.1597
     11  C         -6.8410  103.9400   48.5750 C.2    34  ALA34       0.2287
     12  O         -7.8130  103.9100   47.8240 O.2    34  ALA34      -0.2864
     13  CB        -6.6580  106.0380   49.9070 C.3    34  ALA34       0.0319
     14  N         -6.1630  100.7840   47.9100 N.3    36  LEU36      -0.1245
     15  CA        -6.3610   99.3360   47.9710 C.3    36  LEU36       0.1561
     16  C         -7.2080   98.7430   46.8340 C.2    36  LEU36       0.2260
     17  O         -6.8630   97.6960   46.2740 O.2    36  LEU36      -0.2867
     18  CB        -6.9770   98.9420   49.3160 C.3    36  LEU36       0.0270
     19  CG        -6.0410   98.9110   50.5290 C.3    36  LEU36       0.0019
     20  CD1       -6.8240   98.5380   51.7700 C.3    36  LEU36       0.0001
     21  CD2       -4.9250   97.9100   50.3000 C.3    36  LEU36       0.0001
     22  N         -3.0070  107.6620   49.3220 N.3    80  SER80      -0.1217
     23  CA        -3.3380  109.0380   49.6680 C.3    80  SER80       0.1889
     24  C         -2.4240  109.6000   50.7480 C.2    80  SER80       0.2288
     25  O         -1.5080  108.9280   51.2200 O.2    80  SER80      -0.2866
     26  CB        -4.7820  109.1200   50.1540 C.3    80  SER80       0.2089
     27  OG        -4.9290  108.4660   51.4020 O.3    80  SER80      -0.2183
     28  N         -8.9270  109.4570   49.6660 N.3   108  VAL108     -0.1231
     29  CA        -9.9930  108.9990   50.5470 C.3   108  VAL108      0.1678
     30  C        -11.3040  109.0630   49.7680 C.2   108  VAL108      0.2434
     31  O        -11.4010  109.7760   48.7710 O.2   108  VAL108     -0.2733
     32  CB       -10.0800  109.8820   51.8200 C.3   108  VAL108      0.0265
     33  CG1       -8.7170  109.9270   52.5010 C.3   108  VAL108      0.0020
     34  CG2      -10.5410  111.2940   51.4660 C.3   108  VAL108      0.0020
     35  N        -12.3260  108.3040   50.1960 N.am  109  PRO109     -0.2729
     36  CA       -13.6080  108.3270   49.4830 C.3   109  PRO109      0.1401
     37  C        -14.1950  109.7300   49.3650 C.2   109  PRO109      0.2269
     38  O        -14.0860  110.5330   50.2880 O.2   109  PRO109     -0.2865
     39  CB       -14.4820  107.3750   50.3050 C.3   109  PRO109      0.0296
     40  CG       -13.8500  107.3860   51.6670 C.3   109  PRO109      0.0237
     41  CD       -12.3810  107.3910   51.3490 C.3   109  PRO109      0.0939
     42  N        -15.7340  111.5920   52.0460 N.3   112  ALA112     -0.1245
     43  CA       -14.8820  111.9570   53.1740 C.3   112  ALA112      0.1562
     44  C        -14.0180  113.1740   52.8440 C.2   112  ALA112      0.2260
     45  O        -13.4590  113.8170   53.7390 O.2   112  ALA112     -0.2867
     46  CB       -13.9970  110.7840   53.5530 C.3   112  ALA112      0.0290
     47  N        -10.2790  114.0510   56.7330 N.3   117  ALA117     -0.1231
     48  CA       -10.3440  112.6060   56.8830 C.3   117  ALA117      0.1694
     49  C         -8.9690  111.9780   57.0610 C.2   117  ALA117      0.2592
     50  O         -7.9430  112.6000   56.7830 O.2   117  ALA117     -0.2718
     51  CB       -11.0390  111.9920   55.6740 C.3   117  ALA117      0.0304
     52  N         -8.9680  110.7360   57.5320 N.am  118  PHE118     -0.1962
     53  CA        -7.7420  109.9840   57.7500 C.3   118  PHE118      0.1771
     54  C         -6.9060  109.9100   56.4680 C.2   118  PHE118      0.2619
     55  O         -7.3820  109.4620   55.4220 O.2   118  PHE118     -0.2715
     56  CB        -8.0930  108.5730   58.2300 C.3   118  PHE118      0.0574
     57  CG        -6.9040  107.6720   58.4060 C.ar  118  PHE118     -0.0200
     58  CD1       -5.8880  108.0010   59.2960 C.ar  118  PHE118     -0.0042
     59  CD2       -6.8140  106.4770   57.6990 C.ar  118  PHE118     -0.0042
     60  CE1       -4.8000  107.1530   59.4850 C.ar  118  PHE118     -0.0003
     61  CE2       -5.7300  105.6220   57.8790 C.ar  118  PHE118     -0.0003
     62  CZ        -4.7200  105.9600   58.7750 C.ar  118  PHE118     -0.0000
     63  N         -5.6590  110.3560   56.5660 N.am  119  GLN119     -0.1977
     64  CA        -4.7350  110.3480   55.4390 C.3   119  GLN119      0.1601
     65  C         -5.2250  111.1190   54.2120 C.2   119  GLN119      0.2287
     66  O         -4.9300  110.7470   53.0720 O.2   119  GLN119     -0.2864
     67  CB        -4.3880  108.9050   55.0530 C.3   119  GLN119      0.0394
     68  CG        -3.6400  108.1570   56.1440 C.3   119  GLN119      0.0908
     69  CD        -2.9320  106.9130   55.6410 C.2   119  GLN119      0.2608
     70  OE1       -1.8060  106.6280   56.0430 O.2   119  GLN119     -0.2717
     71  NE2       -3.5900  106.1620   54.7710 N.am  119  GLN119     -0.0878
     72  N        -11.0870  106.4100   46.6950 N.3   168  LYS168     -0.1245
     73  CA       -11.3000  105.0000   46.9910 C.3   168  LYS168      0.1561
     74  C        -12.6680  104.4640   46.5710 C.2   168  LYS168      0.2260
     75  O        -12.7750  103.3340   46.0980 O.2   168  LYS168     -0.2867
     76  CB       -11.1060  104.7260   48.4850 C.3   168  LYS168      0.0271
     77  CG       -11.0750  103.2410   48.7990 C.3   168  LYS168      0.0035
     78  CD       -11.1530  102.9340   50.2800 C.3   168  LYS168      0.0206
     79  CE       -11.1110  101.4250   50.4960 C.3   168  LYS168      0.1093
     80  NZ       -11.4390  101.0180   51.8870 N.3   168  LYS168     -0.1314
@<TRIPOS>BOND
     1    75    74    2
     2    17    16    2
     3    74    73    1
     4    72    73    1
     5    16    15    1
     6    73    76    1
     7    12    11    2
     8    14    15    1
     9    15    18    1
    10    76    77    1
    11    11    10    1
    12    31    30    2
    13    77    78    1
    14    18    19    1
    15    22    23    1
    16    37    36    1
    17    37    38    2
    18    36    35    1
    19    36    39    1
    20    28    29    1
    21    23    26    1
    22    23    24    1
    23    30    35   am
    24    30    29    1
    25     1     2    1
    26    13    10    1
    27    10     9    1
    28    26    27    1
    29     4     3    2
    30    35    41    1
    31    78    79    1
    32    21    19    1
    33    39    40    1
    34    79    80    1
    35    19    20    1
    36    29    32    1
    37     8     7    2
    38    24    25    2
    39     9     7   am
    40     2     3    1
    41     3     5   am
    42     7     6    1
    43    41    40    1
    44    34    32    1
    45    32    33    1
    46    42    43    1
    47     5     6    1
    48    44    43    1
    49    44    45    2
    50    66    65    2
    51    43    46    1
    52    65    64    1
    53    71    69   am
    54    67    64    1
    55    67    68    1
    56    55    54    2
    57    64    63    1
    58    69    70    2
    59    69    68    1
    60    51    48    1
    61    54    63   am
    62    54    53    1
    63    47    48    1
    64    50    49    2
    65    48    49    1
    66    49    52   am
    67    52    53    1
    68    59    61   ar
    69    59    57   ar
    70    53    56    1
    71    61    62   ar
    72    56    57    1
    73    57    58   ar
    74    62    60   ar
    75    58    60   ar
