@<TRIPOS>MOLECULE
tmp/1t9aB04.pdb
 92 91 0 0 0
SMALL
GASTEIGER

@<TRIPOS>ATOM
      1  N          3.8040  102.0200   45.7290 N.3    30  TYR30      -0.1228
      2  CA         3.8120  101.5680   47.1120 C.3    30  TYR30       0.1721
      3  C          2.3450  101.5550   47.5560 C.2    30  TYR30       0.2437
      4  O          1.6520  102.5700   47.4690 O.2    30  TYR30      -0.2733
      5  CB         4.6220  102.5400   47.9670 C.3    30  TYR30       0.0547
      6  CG         5.1300  101.9370   49.2540 C.ar   30  TYR30      -0.0200
      7  CD1        6.3770  101.3160   49.3080 C.ar   30  TYR30      -0.0009
      8  CD2        4.3620  101.9800   50.4200 C.ar   30  TYR30      -0.0009
      9  CE1        6.8510  100.7560   50.4930 C.ar   30  TYR30       0.0417
     10  CE2        4.8280  101.4220   51.6060 C.ar   30  TYR30       0.0417
     11  CZ         6.0710  100.8160   51.6340 C.ar   30  TYR30       0.1957
     12  OH         6.5430  100.2770   52.8020 O.3    30  TYR30      -0.2866
     13  N          1.8560  100.4080   48.0480 N.am   31  PRO31      -0.2718
     14  CA         0.4570  100.3130   48.4800 C.3    31  PRO31       0.1535
     15  C          0.0820  101.1350   49.7080 C.2    31  PRO31       0.2599
     16  O          0.9430  101.6010   50.4560 O.2    31  PRO31      -0.2715
     17  CB         0.2770   98.8150   48.7050 C.3    31  PRO31       0.0310
     18  CG         1.6150   98.4210   49.2550 C.3    31  PRO31       0.0237
     19  CD         2.5810   99.1580   48.3400 C.3    31  PRO31       0.0939
     20  N         -1.2200  101.3020   49.9000 N.am   32  GLY32      -0.1941
     21  CA        -1.7280  102.0520   51.0290 C.3    32  GLY32       0.2014
     22  C         -3.2250  101.8430   51.1040 C.2    32  GLY32       0.2639
     23  O         -3.8230  101.2920   50.1770 O.2    32  GLY32      -0.2714
     24  N         -3.8360  102.2910   52.1940 N.am   33  GLY33      -0.1954
     25  CA        -5.2660  102.1170   52.3660 C.3    33  GLY33       0.1869
     26  C         -6.1470  102.6180   51.2340 C.2    33  GLY33       0.2309
     27  O         -6.8270  101.8340   50.5770 O.2    33  GLY33      -0.2863
     28  N         10.5020  103.7210   49.6770 N.3    55  HIS55      -0.1226
     29  CA         9.9320  105.0520   49.8820 C.3    55  HIS55       0.1752
     30  C          9.3320  105.5510   48.5550 C.2    55  HIS55       0.2595
     31  O          9.8860  105.2900   47.4870 O.2    55  HIS55      -0.2718
     32  CB        11.0560  105.9780   50.3560 C.3    55  HIS55       0.0759
     33  CG        10.5960  107.3210   50.8320 C.ar   55  HIS55       0.0818
     34  ND1        9.9520  108.2240   50.0110 N.ar   55  HIS55      -0.2268
     35  CD2       10.7570  107.9430   52.0250 C.ar   55  HIS55       0.1154
     36  CE1        9.7400  109.3450   50.6780 C.ar   55  HIS55       0.1986
     37  NE2       10.2210  109.2000   51.9020 N.ar   55  HIS55      -0.2212
     38  N          8.2090  106.2620   48.6100 N.am   56  GLU56      -0.1979
     39  CA         7.5860  106.7570   47.3820 C.3    56  GLU56       0.1602
     40  C          8.4720  107.6980   46.5710 C.2    56  GLU56       0.2287
     41  O          8.3130  107.8000   45.3510 O.2    56  GLU56      -0.2864
     42  CB         6.2560  107.4500   47.6770 C.3    56  GLU56       0.0415
     43  CG         5.1480  106.5160   48.1140 C.3    56  GLU56       0.1163
     44  CD         5.1140  106.2920   49.6110 C.2    56  GLU56       0.3649
     45  OE1        6.0100  106.7940   50.3260 O.co2  56  GLU56      -0.2457
     46  OE2        4.1780  105.6080   50.0710 O.co2  56  GLU56      -0.2457
     47  N         -0.4940  105.6720   47.4970 N.3    79  THR79      -0.1218
     48  CA        -1.7130  105.8890   48.2660 C.3    79  THR79       0.1862
     49  C         -1.9460  107.3690   48.5760 C.2    79  THR79       0.2287
     50  O         -1.1840  108.2300   48.1380 O.2    79  THR79      -0.2866
     51  CB        -1.6900  105.0590   49.5760 C.3    79  THR79       0.1770
     52  OG1       -3.0130  104.9630   50.1050 O.3    79  THR79      -0.2211
     53  CG2       -0.7870  105.6980   50.6130 C.3    79  THR79       0.0375
     54  N          0.3110  110.8460   52.9490 N.3    82  PRO82      -0.2102
     55  CA         1.7750  110.7760   52.9110 C.3    82  PRO82       0.1504
     56  C          2.3270  110.1140   51.6530 C.2    82  PRO82       0.2576
     57  O          3.4110  110.4650   51.1820 O.2    82  PRO82      -0.2718
     58  CB         2.1160  110.0220   54.1950 C.3    82  PRO82       0.0282
     59  CG         0.9270  109.1330   54.3900 C.3    82  PRO82       0.0208
     60  CD        -0.2330  110.0260   54.0470 C.3    82  PRO82       0.0893
     61  N          1.5810  109.1610   51.1050 N.am   83  GLY83      -0.1957
     62  CA         2.0240  108.5050   49.8910 C.3    83  GLY83       0.1869
     63  C          2.0890  109.5250   48.7660 C.2    83  GLY83       0.2309
     64  O          3.0270  109.5370   47.9670 O.2    83  GLY83      -0.2863
     65  N          4.7910  112.4050   49.4670 N.3    86  ASN86      -0.1240
     66  CA         6.1510  111.8900   49.3280 C.3    86  ASN86       0.1653
     67  C          6.6090  111.8390   47.8740 C.2    86  ASN86       0.2266
     68  O          7.7860  111.6040   47.6010 O.2    86  ASN86      -0.2867
     69  CB         6.2740  110.4850   49.9190 C.3    86  ASN86       0.1155
     70  CG         6.5710  110.4980   51.4010 C.2    86  ASN86       0.2627
     71  OD1        6.8570  111.5430   51.9730 O.2    86  ASN86      -0.2716
     72  ND2        6.5230  109.3260   52.0280 N.am   86  ASN86      -0.0877
     73  N         -8.9680  110.7360   57.5320 N.3   118  PHE118     -0.1227
     74  CA        -7.7420  109.9840   57.7500 C.3   118  PHE118      0.1736
     75  C         -6.9060  109.9100   56.4680 C.2   118  PHE118      0.2595
     76  O         -7.3820  109.4620   55.4220 O.2   118  PHE118     -0.2718
     77  CB        -8.0930  108.5730   58.2300 C.3   118  PHE118      0.0547
     78  CG        -6.9040  107.6720   58.4060 C.ar  118  PHE118     -0.0202
     79  CD1       -5.8880  108.0010   59.2960 C.ar  118  PHE118     -0.0042
     80  CD2       -6.8140  106.4770   57.6990 C.ar  118  PHE118     -0.0042
     81  CE1       -4.8000  107.1530   59.4850 C.ar  118  PHE118     -0.0003
     82  CE2       -5.7300  105.6220   57.8790 C.ar  118  PHE118     -0.0003
     83  CZ        -4.7200  105.9600   58.7750 C.ar  118  PHE118     -0.0000
     84  N         -5.6590  110.3560   56.5660 N.am  119  GLN119     -0.1979
     85  CA        -4.7350  110.3480   55.4390 C.3   119  GLN119      0.1601
     86  C         -5.2250  111.1190   54.2120 C.2   119  GLN119      0.2287
     87  O         -4.9300  110.7470   53.0720 O.2   119  GLN119     -0.2864
     88  CB        -4.3880  108.9050   55.0530 C.3   119  GLN119      0.0394
     89  CG        -3.6400  108.1570   56.1440 C.3   119  GLN119      0.0908
     90  CD        -2.9320  106.9130   55.6410 C.2   119  GLN119      0.2608
     91  OE1       -1.8060  106.6280   56.0430 O.2   119  GLN119     -0.2717
     92  NE2       -3.5900  106.1620   54.7710 N.am  119  GLN119     -0.0878
@<TRIPOS>BOND
     1    41    40    2
     2     1     2    1
     3    40    39    1
     4     2     3    1
     5     2     5    1
     6    39    42    1
     7    39    38    1
     8     4     3    2
     9    31    30    2
    10    47    48    1
    11     3    13   am
    12    68    67    2
    13    42    43    1
    14    67    66    1
    15     5     6    1
    16    64    63    2
    17    13    19    1
    18    13    14    1
    19    43    44    1
    20    50    49    2
    21    48    49    1
    22    48    51    1
    23    19    18    1
    24    14    17    1
    25    14    15    1
    26    30    38   am
    27    30    29    1
    28    17    18    1
    29    63    62    1
    30     6     7   ar
    31     6     8   ar
    32     7     9   ar
    33    66    65    1
    34    66    69    1
    35    51    52    1
    36    51    53    1
    37    44    46   ar
    38    44    45   ar
    39    28    29    1
    40    15    20   am
    41    15    16    2
    42    29    32    1
    43    62    61    1
    44    20    21    1
    45    69    70    1
    46    34    36   ar
    47    34    33   ar
    48    23    22    2
    49    32    33    1
    50     8    10   ar
    51     9    11   ar
    52    27    26    2
    53    36    37   ar
    54    33    35   ar
    55    21    22    1
    56    22    24   am
    57    61    56   am
    58    57    56    2
    59    26    25    1
    60    70    71    2
    61    70    72   am
    62    10    11   ar
    63    11    12    1
    64    56    55    1
    65    37    35   ar
    66    24    25    1
    67    55    54    1
    68    55    58    1
    69    54    60    1
    70    87    86    2
    71    60    59    1
    72    58    59    1
    73    86    85    1
    74    92    90   am
    75    88    85    1
    76    88    89    1
    77    76    75    2
    78    85    84    1
    79    90    91    2
    80    90    89    1
    81    75    84   am
    82    75    74    1
    83    73    74    1
    84    80    82   ar
    85    80    78   ar
    86    74    77    1
    87    82    83   ar
    88    77    78    1
    89    78    79   ar
    90    83    81   ar
    91    79    81   ar
