@<TRIPOS>MOLECULE
tmp/1t9aB01.pdb
 128 124 0 0 0
SMALL
GASTEIGER

@<TRIPOS>ATOM
      1  N         23.7050  114.8350   42.6630 N.3   403  VAL403     -0.1231
      2  CA        23.8350  116.2500   42.3570 C.3   403  VAL403      0.1692
      3  C         25.0610  116.8330   43.0400 C.2   403  VAL403      0.2593
      4  O         25.2930  116.6060   44.2280 O.2   403  VAL403     -0.2718
      5  CB        22.5700  117.0310   42.7870 C.3   403  VAL403      0.0266
      6  CG1       22.8110  118.5310   42.6950 C.3   403  VAL403      0.0020
      7  CG2       21.4040  116.6350   41.8930 C.3   403  VAL403      0.0020
      8  N         25.8530  117.5750   42.2730 N.am  404  GLY404     -0.1942
      9  CA        27.0480  118.1750   42.8250 C.3   404  GLY404      0.2014
     10  C         28.2600  118.0600   41.9310 C.2   404  GLY404      0.2639
     11  O         28.1440  117.8030   40.7310 O.2   404  GLY404     -0.2714
     12  N         29.4310  118.2500   42.5270 N.am  405  GLN405     -0.1963
     13  CA        30.6840  118.1850   41.7970 C.3   405  GLN405      0.1733
     14  C         30.8190  116.9060   40.9820 C.2   405  GLN405      0.2616
     15  O         31.0940  116.9570   39.7800 O.2   405  GLN405     -0.2715
     16  CB        31.8490  118.3130   42.7690 C.3   405  GLN405      0.0408
     17  CG        31.8290  119.6060   43.5510 C.3   405  GLN405      0.0908
     18  CD        33.0910  119.8060   44.3530 C.2   405  GLN405      0.2608
     19  OE1       33.4680  118.9540   45.1630 O.2   405  GLN405     -0.2717
     20  NE2       33.7570  120.9360   44.1360 N.am  405  GLN405     -0.0878
     21  N         30.6170  115.7640   41.6310 N.am  406  HIS406     -0.1973
     22  CA        30.7200  114.4810   40.9470 C.3   406  HIS406      0.1656
     23  C         29.8550  114.4780   39.6910 C.2   406  HIS406      0.2291
     24  O         30.2080  113.8630   38.6840 O.2   406  HIS406     -0.2864
     25  CB        30.2830  113.3350   41.8710 C.3   406  HIS406      0.0771
     26  CG        28.8300  113.3660   42.2320 C.ar  406  HIS406      0.0820
     27  ND1       28.3230  114.1860   43.2180 N.ar  406  HIS406     -0.2267
     28  CD2       27.7700  112.7000   41.7150 C.ar  406  HIS406      0.1154
     29  CE1       27.0140  114.0240   43.2940 C.ar  406  HIS406      0.1986
     30  NE2       26.6530  113.1280   42.3920 N.ar  406  HIS406     -0.2212
     31  N         31.7180  116.6440   37.0610 N.3   409  TRP409     -0.1241
     32  CA        32.9020  115.9350   36.5990 C.3   409  TRP409      0.1605
     33  C         32.5040  114.7610   35.7180 C.2   409  TRP409      0.2264
     34  O         33.2090  114.4200   34.7680 O.2   409  TRP409     -0.2867
     35  CB        33.7390  115.4420   37.7810 C.3   409  TRP409      0.0550
     36  CG        34.4520  116.5420   38.5140 C.ar  409  TRP409      0.0003
     37  CD1       35.0910  117.6200   37.9610 C.ar  409  TRP409      0.0946
     38  CD2       34.6530  116.6410   39.9300 C.ar  409  TRP409      0.0152
     39  NE1       35.6770  118.3800   38.9460 N.ar  409  TRP409     -0.2442
     40  CE2       35.4250  117.8040   40.1630 C.ar  409  TRP409      0.0810
     41  CE3       34.2580  115.8620   41.0250 C.ar  409  TRP409      0.0012
     42  CZ2       35.8090  118.2040   41.4470 C.ar  409  TRP409      0.0191
     43  CZ3       34.6420  116.2600   42.3060 C.ar  409  TRP409      0.0001
     44  CH2       35.4090  117.4220   42.5030 C.ar  409  TRP409      0.0015
     45  N         19.3270  115.9510   44.9450 N.3   431  MET431     -0.1245
     46  CA        20.2940  115.0140   45.5050 C.3   431  MET431      0.1570
     47  C         19.5470  113.7170   45.8250 C.2   431  MET431      0.2261
     48  O         18.3810  113.7520   46.2020 O.2   431  MET431     -0.2867
     49  CB        20.9100  115.5820   46.7820 C.3   431  MET431      0.0387
     50  CG        21.9180  116.6880   46.5400 C.3   431  MET431      0.0595
     51  SD        22.4380  117.4660   48.0760 S.3   431  MET431     -0.1393
     52  CE        23.4120  116.1530   48.8160 C.3   431  MET431      0.0692
     53  N         27.6500  111.0630   44.7450 N.3   455  GLY455     -0.1210
     54  CA        28.4480  111.7730   45.7280 C.3   455  GLY455      0.1956
     55  C         28.0220  111.1810   47.0620 C.2   455  GLY455      0.2612
     56  O         26.9270  110.6140   47.1630 O.2   455  GLY455     -0.2717
     57  N         28.8570  111.2920   48.0900 N.am  456  ASP456     -0.1959
     58  CA        28.5020  110.7230   49.3810 C.3   456  ASP456      0.1840
     59  C         27.2550  111.3580   49.9950 C.2   456  ASP456      0.2622
     60  O         26.3780  110.6520   50.4920 O.2   456  ASP456     -0.2715
     61  CB        29.6900  110.8040   50.3460 C.3   456  ASP456      0.1450
     62  CG        30.2760  112.1910   50.4390 C.2   456  ASP456      0.3671
     63  OD1       30.5890  112.7840   49.3860 O.co2 456  ASP456     -0.2456
     64  OD2       30.4350  112.6870   51.5720 O.co2 456  ASP456     -0.2456
     65  N         27.1540  112.6810   49.9550 N.am  457  ALA457     -0.1963
     66  CA        25.9850  113.3350   50.5240 C.3   457  ALA457      0.1728
     67  C         24.7160  112.9890   49.7360 C.2   457  ALA457      0.2616
     68  O         23.6630  112.7310   50.3240 O.2   457  ALA457     -0.2715
     69  CB        26.1910  114.8480   50.5710 C.3   457  ALA457      0.0334
     70  N         24.8110  112.9750   48.4090 N.am  458  SER458     -0.1950
     71  CA        23.6450  112.6510   47.5880 C.3   458  SER458      0.1924
     72  C         23.1750  111.2330   47.8660 C.2   458  SER458      0.2314
     73  O         21.9780  110.9810   48.0080 O.2   458  SER458     -0.2863
     74  CB        23.9690  112.7870   46.0980 C.3   458  SER458      0.2116
     75  OG        24.0850  114.1460   45.7230 O.3   458  SER458     -0.2180
     76  N         31.9540  108.6980   44.8480 N.3   481  LEU481     -0.1245
     77  CA        33.1660  109.5010   44.9320 C.3   481  LEU481      0.1561
     78  C         33.0570  110.1890   46.2840 C.2   481  LEU481      0.2260
     79  O         32.4040  111.2270   46.4220 O.2   481  LEU481     -0.2867
     80  CB        33.2120  110.5430   43.8140 C.3   481  LEU481      0.0270
     81  CG        33.3460  109.9990   42.3920 C.3   481  LEU481      0.0019
     82  CD1       33.4650  111.1610   41.4180 C.3   481  LEU481      0.0001
     83  CD2       34.5680  109.0940   42.3010 C.3   481  LEU481      0.0001
     84  N         34.2550  112.3800   49.2380 N.3   483  ASN483     -0.1240
     85  CA        35.1240  113.4680   49.6740 C.3   483  ASN483      0.1653
     86  C         34.6180  113.9300   51.0410 C.2   483  ASN483      0.2266
     87  O         35.0510  114.9560   51.5640 O.2   483  ASN483     -0.2867
     88  CB        35.0890  114.6330   48.6830 C.3   483  ASN483      0.1155
     89  CG        33.6810  114.9760   48.2310 C.2   483  ASN483      0.2627
     90  OD1       32.7020  114.6490   48.9000 O.2   483  ASN483     -0.2716
     91  ND2       33.5740  115.6510   47.0910 N.am  483  ASN483     -0.0877
     92  N         31.9430  115.3740   52.0300 N.3   485  GLU485     -0.1231
     93  CA        31.4890  116.7530   52.0530 C.3   485  GLU485      0.1699
     94  C         30.4400  117.0170   50.9890 C.2   485  GLU485      0.2592
     95  O         30.1520  116.1660   50.1470 O.2   485  GLU485     -0.2718
     96  CB        32.6780  117.6900   51.8030 C.3   485  GLU485      0.0402
     97  CG        33.1790  117.6370   50.3580 C.3   485  GLU485      0.1161
     98  CD        34.4080  118.4910   50.1130 C.2   485  GLU485      0.3649
     99  OE1       34.4090  119.6730   50.5170 O.co2 485  GLU485     -0.2457
    100  OE2       35.3710  117.9800   49.5040 O.co2 485  GLU485     -0.2457
    101  N         29.8810  118.2200   51.0500 N.am  486  GLN486     -0.1966
    102  CA        28.8960  118.7010   50.0960 C.3   486  GLN486      0.1733
    103  C         29.7240  119.5240   49.1190 C.2   486  GLN486      0.2617
    104  O         29.7040  120.7550   49.1610 O.2   486  GLN486     -0.2715
    105  CB        27.8810  119.5960   50.8010 C.3   486  GLN486      0.0408
    106  CG        26.5790  118.9140   51.1770 C.3   486  GLN486      0.0908
    107  CD        25.7870  119.7050   52.2100 C.2   486  GLN486      0.2608
    108  OE1       25.8820  119.4550   53.4130 O.2   486  GLN486     -0.2717
    109  NE2       25.0150  120.6780   51.7480 N.am  486  GLN486     -0.0878
    110  N         30.4670  118.8290   48.2630 N.am  487  GLY487     -0.1940
    111  CA        31.3350  119.4780   47.2990 C.3   487  GLY487      0.2014
    112  C         30.8950  120.8020   46.6970 C.2   487  GLY487      0.2639
    113  O         31.5560  121.8220   46.8950 O.2   487  GLY487     -0.2714
    114  N         29.7840  120.7920   45.9640 N.am  488  MET488     -0.1963
    115  CA        29.2960  122.0000   45.3050 C.3   488  MET488      0.1736
    116  C         29.0640  123.1770   46.2540 C.2   488  MET488      0.2616
    117  O         29.3150  124.3280   45.8920 O.2   488  MET488     -0.2715
    118  CB        28.0110  121.6910   44.5290 C.3   488  MET488      0.0427
    119  CG        27.7620  122.6030   43.3310 C.3   488  MET488      0.0599
    120  SD        29.0180  122.4390   42.0220 S.3   488  MET488     -0.1393
    121  CE        30.1520  123.7590   42.4640 C.3   488  MET488      0.0692
    122  N         28.5900  122.8940   47.4630 N.am  489  VAL489     -0.1977
    123  CA        28.3360  123.9540   48.4340 C.3   489  VAL489      0.1596
    124  C         29.6260  124.4580   49.0810 C.2   489  VAL489      0.2287
    125  O         29.8100  125.6650   49.2440 O.2   489  VAL489     -0.2864
    126  CB        27.3640  123.4830   49.5440 C.3   489  VAL489      0.0276
    127  CG1       27.1120  124.6080   50.5330 C.3   489  VAL489      0.0022
    128  CG2       26.0600  123.0520   48.9300 C.3   489  VAL489      0.0022
@<TRIPOS>BOND
     1    34    33    2
     2    33    32    1
     3    32    31    1
     4    32    35    1
     5    35    36    1
     6    37    36   ar
     7    37    39   ar
     8    36    38   ar
     9    24    23    2
    10    39    40   ar
    11    23    22    1
    12    15    14    2
    13    38    40   ar
    14    38    41   ar
    15    40    42   ar
    16    11    10    2
    17    22    21    1
    18    22    25    1
    19    14    21   am
    20    14    13    1
    21    41    43   ar
    22    82    81    1
    23    42    44   ar
    24    28    26   ar
    25    28    30   ar
    26    13    12    1
    27    13    16    1
    28    25    26    1
    29     7     5    1
    30    10    12   am
    31    10     9    1
    32   120   121    1
    33   120   119    1
    34    26    27   ar
    35     8     9    1
    36     8     3   am
    37    83    81    1
    38    43    44   ar
    39     2     1    1
    40     2     5    1
    41     2     3    1
    42    30    29   ar
    43    81    80    1
    44     6     5    1
    45    16    17    1
    46     3     4    2
    47    27    29   ar
    48   119   118    1
    49    17    18    1
    50    80    77    1
    51    20    18   am
    52    18    19    2
    53   118   115    1
    54    53    54    1
    55    76    77    1
    56    77    78    1
    57    45    46    1
    58   115   114    1
    59   115   116    1
    60    46    47    1
    61    46    49    1
    62    75    74    1
    63    54    55    1
    64    47    48    2
    65   117   116    2
    66   114   112   am
    67    74    71    1
    68   116   122   am
    69    78    79    2
    70    50    49    1
    71    50    51    1
    72   112   113    2
    73   112   111    1
    74    55    56    2
    75    55    57   am
    76    91    89   am
    77   111   110    1
    78   122   123    1
    79    71    72    1
    80    71    70    1
    81    72    73    2
    82    51    52    1
    83    57    58    1
    84    89    88    1
    85    89    90    2
    86   110   103   am
    87    70    67   am
    88   123   124    1
    89   123   126    1
    90    88    85    1
    91   128   126    1
    92   124   125    2
    93   103   104    2
    94   103   102    1
    95    84    85    1
    96    58    59    1
    97    58    61    1
    98    63    62   ar
    99   100    98   ar
   100   126   127    1
   101    85    86    1
   102    67    68    2
   103    67    66    1
   104    65    59   am
   105    65    66    1
   106    59    60    2
   107   102   105    1
   108   102   101    1
   109    98    97    1
   110    98    99   ar
   111    95    94    2
   112    61    62    1
   113    97    96    1
   114    62    64   ar
   115    66    69    1
   116   105   106    1
   117    94   101   am
   118    94    93    1
   119    86    87    2
   120   106   107    1
   121   109   107   am
   122    96    93    1
   123    92    93    1
   124   107   108    2
