@<TRIPOS>MOLECULE
tmp/1t9aB03.pdb
 90 87 0 0 0
SMALL
GASTEIGER

@<TRIPOS>ATOM
      1  N         27.8360  127.3020   32.9870 N.3   260  MET260     -0.1230
      2  CA        28.5300  127.5630   34.2480 C.3   260  MET260      0.1702
      3  C         29.7920  126.7200   34.4390 C.2   260  MET260      0.2592
      4  O         30.8350  127.2310   34.8490 O.2   260  MET260     -0.2718
      5  CB        27.5660  127.3210   35.4130 C.3   260  MET260      0.0401
      6  CG        28.1660  127.5200   36.7930 C.3   260  MET260      0.0596
      7  SD        26.9430  127.2900   38.1050 S.3   260  MET260     -0.1393
      8  CE        26.3220  128.9700   38.3000 C.3   260  MET260      0.0692
      9  N         29.6920  125.4280   34.1470 N.am  261  HIS261     -0.1976
     10  CA        30.8290  124.5300   34.2840 C.3   261  HIS261      0.1656
     11  C         31.1430  123.8310   32.9660 C.2   261  HIS261      0.2291
     12  O         31.7440  122.7560   32.9490 O.2   261  HIS261     -0.2864
     13  CB        30.5530  123.4940   35.3790 C.3   261  HIS261      0.0771
     14  CG        30.5860  124.0620   36.7630 C.ar  261  HIS261      0.0820
     15  ND1       31.7240  124.6130   37.3120 N.ar  261  HIS261     -0.2267
     16  CD2       29.6190  124.1860   37.7010 C.ar  261  HIS261      0.1154
     17  CE1       31.4560  125.0520   38.5290 C.ar  261  HIS261      0.1986
     18  NE2       30.1850  124.8040   38.7900 N.ar  261  HIS261     -0.2212
     19  N         19.4030  129.5560   33.3760 N.3   285  ASP285     -0.1225
     20  CA        20.4470  130.3600   34.0110 C.3   285  ASP285      0.1805
     21  C         21.7580  129.6430   34.3320 C.2   285  ASP285      0.2597
     22  O         22.7040  130.2750   34.7970 O.2   285  ASP285     -0.2718
     23  CB        19.9030  131.0330   35.2800 C.3   285  ASP285      0.1424
     24  CG        19.3380  130.0420   36.2810 C.2   285  ASP285      0.3668
     25  OD1       20.0920  129.1590   36.7480 O.co2 285  ASP285     -0.2456
     26  OD2       18.1380  130.1520   36.6050 O.co2 285  ASP285     -0.2456
     27  N         21.8210  128.3360   34.0950 N.am  286  ARG286     -0.1979
     28  CA        23.0520  127.5910   34.3460 C.3   286  ARG286      0.1597
     29  C         23.8610  127.5320   33.0550 C.2   286  ARG286      0.2287
     30  O         25.0270  127.1330   33.0580 O.2   286  ARG286     -0.2864
     31  CB        22.7540  126.1570   34.7990 C.3   286  ARG286      0.0334
     32  CG        22.0300  126.0110   36.1280 C.3   286  ARG286      0.0492
     33  CD        22.8190  126.5810   37.2990 C.3   286  ARG286      0.2205
     34  NE        22.3500  127.9150   37.6620 N.pl3 286  ARG286     -0.0865
     35  CZ        22.7420  128.5770   38.7440 C.cat 286  ARG286      0.5346
     36  NH1       23.6150  128.0320   39.5790 N.pl3 286  ARG286      0.1354
     37  NH2       22.2500  129.7820   38.9970 N.pl3 286  ARG286      0.1354
     38  N         29.0570  117.1530   37.8000 N.3   408  MET408     -0.1245
     39  CA        29.7000  117.9750   36.7830 C.3   408  MET408      0.1570
     40  C         30.9200  117.2680   36.2010 C.2   408  MET408      0.2261
     41  O         31.1320  117.2840   34.9880 O.2   408  MET408     -0.2867
     42  CB        30.1120  119.3300   37.3690 C.3   408  MET408      0.0387
     43  CG        28.9420  120.2140   37.7670 C.3   408  MET408      0.0595
     44  SD        27.8320  120.5840   36.3870 S.3   408  MET408     -0.1393
     45  CE        26.5890  119.2680   36.5640 C.3   408  MET408      0.0692
     46  N         29.7840  120.7920   45.9640 N.3   488  MET488     -0.1230
     47  CA        29.2960  122.0000   45.3050 C.3   488  MET488      0.1702
     48  C         29.0640  123.1770   46.2540 C.2   488  MET488      0.2592
     49  O         29.3150  124.3280   45.8920 O.2   488  MET488     -0.2718
     50  CB        28.0110  121.6910   44.5290 C.3   488  MET488      0.0401
     51  CG        27.7620  122.6030   43.3310 C.3   488  MET488      0.0596
     52  SD        29.0180  122.4390   42.0220 S.3   488  MET488     -0.1393
     53  CE        30.1520  123.7590   42.4640 C.3   488  MET488      0.0692
     54  N         28.5900  122.8940   47.4630 N.am  489  VAL489     -0.1980
     55  CA        28.3360  123.9540   48.4340 C.3   489  VAL489      0.1595
     56  C         29.6260  124.4580   49.0810 C.2   489  VAL489      0.2287
     57  O         29.8100  125.6650   49.2440 O.2   489  VAL489     -0.2864
     58  CB        27.3640  123.4830   49.5440 C.3   489  VAL489      0.0276
     59  CG1       27.1120  124.6080   50.5330 C.3   489  VAL489      0.0022
     60  CG2       26.0600  123.0520   48.9300 C.3   489  VAL489      0.0022
     61  N         31.3520  126.7700   46.8340 N.3   492  TRP492     -0.1241
     62  CA        30.7840  128.1110   46.8650 C.3   492  TRP492      0.1605
     63  C         31.1570  128.8210   48.1610 C.2   492  TRP492      0.2264
     64  O         31.3630  130.0360   48.1760 O.2   492  TRP492     -0.2867
     65  CB        29.2590  128.0610   46.7020 C.3   492  TRP492      0.0550
     66  CG        28.8310  128.0040   45.2610 C.ar  492  TRP492      0.0003
     67  CD1       29.0660  126.9910   44.3730 C.ar  492  TRP492      0.0946
     68  CD2       28.1630  129.0350   44.5240 C.ar  492  TRP492      0.0152
     69  NE1       28.5940  127.3310   43.1290 N.ar  492  TRP492     -0.2442
     70  CE2       28.0360  128.5800   43.1890 C.ar  492  TRP492      0.0810
     71  CE3       27.6630  130.3050   44.8570 C.ar  492  TRP492      0.0012
     72  CZ2       27.4290  129.3510   42.1860 C.ar  492  TRP492      0.0191
     73  CZ3       27.0600  131.0730   43.8580 C.ar  492  TRP492      0.0001
     74  CH2       26.9490  130.5900   42.5380 C.ar  492  TRP492      0.0015
     75  N         32.3470  132.7100   50.4130 N.3   497  TYR497     -0.1241
     76  CA        32.1440  132.9120   51.8470 C.3   497  TYR497      0.1605
     77  C         33.3760  132.6710   52.7140 C.2   497  TYR497      0.2264
     78  O         33.2860  132.0840   53.7950 O.2   497  TYR497     -0.2867
     79  CB        30.9740  132.0540   52.3430 C.3   497  TYR497      0.0534
     80  CG        29.6560  132.4050   51.6890 C.ar  497  TYR497     -0.0201
     81  CD1       29.2680  131.8080   50.4890 C.ar  497  TYR497     -0.0009
     82  CD2       28.8190  133.3760   52.2410 C.ar  497  TYR497     -0.0009
     83  CE1       28.0800  132.1710   49.8520 C.ar  497  TYR497      0.0417
     84  CE2       27.6310  133.7470   51.6140 C.ar  497  TYR497      0.0417
     85  CZ        27.2690  133.1420   50.4200 C.ar  497  TYR497      0.1957
     86  OH        26.1050  133.5150   49.7860 O.3   497  TYR497     -0.2866
     87  N         27.9210  134.4300   39.1940 N.3   563  GLY563     -0.1225
     88  CA        27.6860  135.8450   39.4120 C.3   563  GLY563      0.1811
     89  C         27.3360  136.6200   38.1540 C.2   563  GLY563      0.2280
     90  O         26.5850  136.1380   37.3050 O.2   563  GLY563     -0.2866
@<TRIPOS>BOND
     1    12    11    2
     2    11    10    1
     3     1     2    1
     4    29    30    2
     5    29    28    1
     6    19    20    1
     7    20    21    1
     8    20    23    1
     9    27    21   am
    10    27    28    1
    11     9    10    1
    12     9     3   am
    13     2     3    1
    14     2     5    1
    15    10    13    1
    16    21    22    2
    17    28    31    1
    18     3     4    2
    19    31    32    1
    20    41    40    2
    21    23    24    1
    22    13    14    1
    23     5     6    1
    24    32    33    1
    25    40    39    1
    26    24    26   ar
    27    24    25   ar
    28    44    45    1
    29    44    43    1
    30    14    15   ar
    31    14    16   ar
    32    39    42    1
    33    39    38    1
    34     6     7    1
    35    33    34    1
    36    90    89    2
    37    15    17   ar
    38    42    43    1
    39    34    35    2
    40    16    18   ar
    41     7     8    1
    42    89    88    1
    43    17    18   ar
    44    35    37    1
    45    35    36    1
    46    87    88    1
    47    52    53    1
    48    52    51    1
    49    72    74   ar
    50    72    70   ar
    51    74    73   ar
    52    69    70   ar
    53    69    67   ar
    54    70    68   ar
    55    51    50    1
    56    73    71   ar
    57    67    66   ar
    58    68    71   ar
    59    68    66   ar
    60    50    47    1
    61    66    65    1
    62    47    46    1
    63    47    48    1
    64    49    48    2
    65    48    54   am
    66    65    62    1
    67    61    62    1
    68    62    63    1
    69    54    55    1
    70    63    64    2
    71    55    56    1
    72    55    58    1
    73    60    58    1
    74    56    57    2
    75    58    59    1
    76    86    85    1
    77    83    85   ar
    78    83    81   ar
    79    75    76    1
    80    85    84   ar
    81    81    80   ar
    82    84    82   ar
    83    80    82   ar
    84    80    79    1
    85    76    79    1
    86    76    77    1
    87    77    78    2
