@<TRIPOS>MOLECULE
tmp/1t9bB01.pdb
 132 127 0 0 0
SMALL
GASTEIGER

@<TRIPOS>ATOM
      1  N          4.1230   50.7760  117.1830 N.3   405  VAL405     -0.1231
      2  CA         2.6940   50.8450  117.4280 C.3   405  VAL405      0.1692
      3  C          2.2800   52.2640  117.7840 C.2   405  VAL405      0.2593
      4  O          2.9020   52.9080  118.6250 O.2   405  VAL405     -0.2718
      5  CB         2.3020   49.8800  118.5610 C.3   405  VAL405      0.0266
      6  CG1        0.8290   50.0460  118.9220 C.3   405  VAL405      0.0020
      7  CG2        2.5840   48.4550  118.1190 C.3   405  VAL405      0.0020
      8  N          1.2320   52.7520  117.1290 N.am  406  GLY406     -0.1942
      9  CA         0.7590   54.0970  117.3910 C.3   406  GLY406      0.2014
     10  C          0.3670   54.8510  116.1330 C.2   406  GLY406      0.2639
     11  O          0.0110   54.2490  115.1210 O.2   406  GLY406     -0.2714
     12  N          0.4450   56.1740  116.1920 N.am  407  GLN407     -0.1963
     13  CA         0.0680   57.0150  115.0640 C.3   407  GLN407      0.1733
     14  C          0.9150   56.8070  113.8170 C.2   407  GLN407      0.2616
     15  O          0.3880   56.7560  112.7060 O.2   407  GLN407     -0.2715
     16  CB         0.1280   58.4850  115.4680 C.3   407  GLN407      0.0408
     17  CG        -0.7210   58.8290  116.6720 C.3   407  GLN407      0.0908
     18  CD        -0.7440   60.3140  116.9370 C.2   407  GLN407      0.2608
     19  OE1        0.3050   60.9390  117.1060 O.2   407  GLN407     -0.2717
     20  NE2       -1.9440   60.8940  116.9660 N.am  407  GLN407     -0.0878
     21  N          2.2270   56.7000  113.9990 N.am  408  HIS408     -0.1973
     22  CA         3.1330   56.4970  112.8720 C.3   408  HIS408      0.1656
     23  C          2.7350   55.2220  112.1310 C.2   408  HIS408      0.2291
     24  O          2.8220   55.1470  110.9040 O.2   408  HIS408     -0.2864
     25  CB         4.5740   56.3910  113.3740 C.3   408  HIS408      0.0771
     26  CG         4.7980   55.2480  114.3130 C.ar  408  HIS408      0.0820
     27  ND1        5.2200   54.0060  113.8880 N.ar  408  HIS408     -0.2267
     28  CD2        4.6220   55.1480  115.6510 C.ar  408  HIS408      0.1154
     29  CE1        5.2950   53.1900  114.9250 C.ar  408  HIS408      0.1986
     30  NE2        4.9370   53.8580  116.0060 N.ar  408  HIS408     -0.2212
     31  N         -0.4260   56.0230  110.1400 N.3   411  TRP411     -0.1241
     32  CA        -0.0990   56.8780  109.0020 C.3   411  TRP411      0.1605
     33  C          0.6480   56.0910  107.9280 C.2   411  TRP411      0.2264
     34  O          0.4990   56.3510  106.7310 O.2   411  TRP411     -0.2867
     35  CB         0.7210   58.0900  109.4610 C.3   411  TRP411      0.0550
     36  CG        -0.1180   59.1220  110.1640 C.ar  411  TRP411      0.0003
     37  CD1       -1.3640   59.5460  109.7960 C.ar  411  TRP411      0.0946
     38  CD2        0.2430   59.8950  111.3190 C.ar  411  TRP411      0.0152
     39  NE1       -1.7990   60.5320  110.6450 N.ar  411  TRP411     -0.2442
     40  CE2       -0.8350   60.7680  111.5890 C.ar  411  TRP411      0.0810
     41  CE3        1.3720   59.9360  112.1500 C.ar  411  TRP411      0.0012
     42  CZ2       -0.8190   61.6760  112.6580 C.ar  411  TRP411      0.0191
     43  CZ3        1.3890   60.8390  113.2140 C.ar  411  TRP411      0.0001
     44  CH2        0.2990   61.6970  113.4560 C.ar  411  TRP411      0.0015
     45  N         -0.6110   44.6180  119.4830 N.3   431  GLY431     -0.1225
     46  CA        -0.0820   45.9670  119.3570 C.3   431  GLY431      0.1811
     47  C          1.1170   46.1990  120.2560 C.2   431  GLY431      0.2280
     48  O          1.0980   47.0640  121.1280 O.2   431  GLY431     -0.2866
     49  N          4.5000   47.6550  121.2300 N.3   433  MET433     -0.1245
     50  CA         5.4560   48.7210  120.9470 C.3   433  MET433      0.1570
     51  C          6.8420   48.0820  121.0440 C.2   433  MET433      0.2261
     52  O          7.0840   47.2630  121.9300 O.2   433  MET433     -0.2867
     53  CB         5.3480   49.8380  121.9900 C.3   433  MET433      0.0387
     54  CG         4.1430   50.7500  121.8440 C.3   433  MET433      0.0595
     55  SD         3.9590   51.8510  123.2650 S.3   433  MET433     -0.1393
     56  CE         5.4480   52.8990  123.0830 C.3   433  MET433      0.0692
     57  N          8.0410   54.8130  115.8900 N.3   457  GLY457     -0.1210
     58  CA         7.6420   55.9410  116.7110 C.3   457  GLY457      0.1956
     59  C          8.7620   56.1010  117.7240 C.2   457  GLY457      0.2612
     60  O          9.5100   55.1470  117.9610 O.2   457  GLY457     -0.2717
     61  N          8.9020   57.2820  118.3200 N.am  458  ASP458     -0.1959
     62  CA         9.9680   57.4910  119.2890 C.3   458  ASP458      0.1840
     63  C          9.7930   56.6570  120.5570 C.2   458  ASP458      0.2622
     64  O         10.7560   56.0730  121.0560 O.2   458  ASP458     -0.2715
     65  CB        10.1090   58.9860  119.6340 C.3   458  ASP458      0.1450
     66  CG         8.7970   59.6270  120.0480 C.2   458  ASP458      0.3671
     67  OD1        7.8100   59.5310  119.2910 O.co2 458  ASP458     -0.2456
     68  OD2        8.7540   60.2410  121.1310 O.co2 458  ASP458     -0.2456
     69  N          8.5730   56.5860  121.0780 N.am  459  ALA459     -0.1963
     70  CA         8.3390   55.8030  122.2900 C.3   459  ALA459      0.1728
     71  C          8.4740   54.3070  122.0030 C.2   459  ALA459      0.2616
     72  O          9.0430   53.5700  122.8090 O.2   459  ALA459     -0.2715
     73  CB         6.9570   56.1150  122.8690 C.3   459  ALA459      0.0334
     74  N          7.9600   53.8630  120.8580 N.am  460  SER460     -0.1950
     75  CA         8.0490   52.4510  120.4880 C.3   460  SER460      0.1924
     76  C          9.5060   52.0430  120.3230 C.2   460  SER460      0.2314
     77  O          9.9230   50.9690  120.7700 O.2   460  SER460     -0.2863
     78  CB         7.3070   52.1770  119.1690 C.3   460  SER460      0.2116
     79  OG         5.8990   52.2010  119.3440 O.3   460  SER460     -0.2180
     80  N          9.7270   58.7190  113.3880 N.3   483  LEU483     -0.1245
     81  CA         8.8800   59.8960  113.2600 C.3   483  LEU483      0.1561
     82  C          8.7580   60.3810  114.6980 C.2   483  LEU483      0.2260
     83  O          7.8440   59.9970  115.4270 O.2   483  LEU483     -0.2867
     84  CB         7.5040   59.5260  112.6970 C.3   483  LEU483      0.0270
     85  CG         7.4550   58.9940  111.2590 C.3   483  LEU483      0.0019
     86  CD1        5.9950   58.8280  110.8380 C.3   483  LEU483      0.0001
     87  CD2        8.1640   59.9550  110.3090 C.3   483  LEU483      0.0001
     88  N          7.8200   62.6540  117.5640 N.3   485  ASN485     -0.1240
     89  CA         6.9130   63.7060  118.0000 C.3   485  ASN485      0.1653
     90  C          7.0730   63.8860  119.5080 C.2   485  ASN485      0.2266
     91  O          6.2700   64.5530  120.1560 O.2   485  ASN485     -0.2867
     92  CB         5.4530   63.3710  117.6580 C.3   485  ASN485      0.1155
     93  CG         5.0660   61.9480  118.0210 C.2   485  ASN485      0.2627
     94  OD1        5.6900   61.3160  118.8730 O.2   485  ASN485     -0.2716
     95  ND2        4.0130   61.4410  117.3780 N.am  485  ASN485     -0.0877
     96  N          6.4410   62.0550  121.9920 N.3   487  GLU487     -0.1231
     97  CA         5.2490   61.7030  122.7520 C.3   487  GLU487      0.1699
     98  C          4.7400   60.3160  122.3790 C.2   487  GLU487      0.2592
     99  O          5.1390   59.7440  121.3650 O.2   487  GLU487     -0.2718
    100  CB         4.1330   62.7100  122.4610 C.3   487  GLU487      0.0402
    101  CG         3.5860   62.5780  121.0360 C.3   487  GLU487      0.1161
    102  CD         2.5260   63.6070  120.6810 C.2   487  GLU487      0.3649
    103  OE1        1.5900   63.8270  121.4850 O.co2 487  GLU487     -0.2457
    104  OE2        2.6230   64.1850  119.5800 O.co2 487  GLU487     -0.2457
    105  N          3.8580   59.7870  123.2180 N.am  488  GLN488     -0.1966
    106  CA         3.2110   58.5070  122.9700 C.3   488  GLN488      0.1733
    107  C          1.9500   58.9840  122.2530 C.2   488  GLN488      0.2617
    108  O          0.8780   59.0860  122.8460 O.2   488  GLN488     -0.2715
    109  CB         2.8570   57.8220  124.2900 C.3   488  GLN488      0.0408
    110  CG         4.0670   57.3730  125.1040 C.3   488  GLN488      0.0908
    111  CD         3.6990   56.9550  126.5220 C.2   488  GLN488      0.2608
    112  OE1        2.7490   56.1970  126.7290 O.2   488  GLN488     -0.2717
    113  NE2        4.4570   57.4440  127.5060 N.am  488  GLN488     -0.0878
    114  N          2.1140   59.2980  120.9700 N.am  489  GLY489     -0.1940
    115  CA         1.0390   59.8290  120.1510 C.3   489  GLY489      0.2014
    116  C         -0.3650   59.2580  120.1880 C.2   489  GLY489      0.2639
    117  O         -1.3310   60.0010  120.3550 O.2   489  GLY489     -0.2714
    118  N         -0.4950   57.9460  120.0170 N.am  490  MET490     -0.1963
    119  CA        -1.8190   57.3310  120.0120 C.3   490  MET490      0.1736
    120  C         -2.5010   57.5300  121.3630 C.2   490  MET490      0.2616
    121  O         -3.7220   57.6820  121.4320 O.2   490  MET490     -0.2715
    122  CB        -1.7110   55.8350  119.6670 C.3   490  MET490      0.0427
    123  CG        -3.0180   55.1530  119.2090 C.3   490  MET490      0.0599
    124  SD        -3.7480   55.6800  117.6160 S.3   490  MET490     -0.1393
    125  CE        -4.9880   56.9140  118.2470 C.3   490  MET490      0.0692
    126  N         -1.7190   57.5470  122.4380 N.am  491  VAL491     -0.1977
    127  CA        -2.2860   57.7400  123.7640 C.3   491  VAL491      0.1596
    128  C         -2.6250   59.2140  123.9950 C.2   491  VAL491      0.2287
    129  O         -3.6810   59.5250  124.5490 O.2   491  VAL491     -0.2864
    130  CB        -1.3330   57.2320  124.8680 C.3   491  VAL491      0.0276
    131  CG1       -2.0330   57.2870  126.2150 C.3   491  VAL491      0.0022
    132  CG2       -0.9020   55.8000  124.5570 C.3   491  VAL491      0.0022
@<TRIPOS>BOND
     1    34    33    2
     2    33    32    1
     3    32    35    1
     4    32    31    1
     5    35    36    1
     6    37    36   ar
     7    37    39   ar
     8    36    38   ar
     9    87    85    1
    10    39    40   ar
    11    86    85    1
    12    24    23    2
    13    85    84    1
    14    38    40   ar
    15    38    41   ar
    16    40    42   ar
    17    23    22    1
    18    41    43   ar
    19    42    44   ar
    20    84    81    1
    21    15    14    2
    22    22    25    1
    23    22    21    1
    24    43    44   ar
    25    81    80    1
    26    81    82    1
    27    25    26    1
    28    14    21   am
    29    14    13    1
    30    27    26   ar
    31    27    29   ar
    32    26    28   ar
    33    82    83    2
    34    29    30   ar
    35    13    16    1
    36    13    12    1
    37    11    10    2
    38    16    17    1
    39    28    30   ar
    40    57    58    1
    41    10    12   am
    42    10     9    1
    43    17    18    1
    44    58    59    1
    45    18    20   am
    46    18    19    2
    47     8     9    1
    48     8     3   am
    49     1     2    1
    50    95    93   am
    51     2     3    1
    52     2     5    1
    53    88    89    1
    54   124   125    1
    55   124   123    1
    56    92    89    1
    57    92    93    1
    58    59    60    2
    59    59    61   am
    60     3     4    2
    61    89    90    1
    62    93    94    2
    63     7     5    1
    64    61    62    1
    65     5     6    1
    66    78    79    1
    67    78    75    1
    68   123   122    1
    69    62    65    1
    70    62    63    1
    71    67    66   ar
    72    46    45    1
    73    46    47    1
    74    90    91    2
    75   104   102   ar
    76    65    66    1
    77   122   119    1
    78   119   118    1
    79   119   120    1
    80   118   116   am
    81    66    68   ar
    82   115   116    1
    83   115   114    1
    84   116   117    2
    85    47    48    2
    86    76    75    1
    87    76    77    2
    88    75    74    1
    89    63    64    2
    90    63    69   am
    91   102   101    1
    92   102   103   ar
    93    74    71   am
    94    50    51    1
    95    50    49    1
    96    50    53    1
    97   114   107   am
    98   101   100    1
    99    51    52    2
   100    69    70    1
   101   120   121    2
   102   120   126   am
   103    99    98    2
   104    54    53    1
   105    54    55    1
   106    96    97    1
   107    71    70    1
   108    71    72    2
   109   107   108    2
   110   107   106    1
   111    70    73    1
   112    98    97    1
   113    98   105   am
   114   126   127    1
   115   100    97    1
   116   106   105    1
   117   106   109    1
   118    56    55    1
   119   127   128    1
   120   127   130    1
   121   128   129    2
   122   109   110    1
   123   132   130    1
   124   130   131    1
   125   110   111    1
   126   111   112    2
   127   111   113   am
