@<TRIPOS>MOLECULE
tmp/1t9bA02.pdb
 81 79 0 0 0
SMALL
GASTEIGER

@<TRIPOS>ATOM
      1  N          3.7620   52.5270  133.0140 N.3    29  TYR29      -0.1228
      2  CA         3.7410   52.9740  131.6310 C.3    29  TYR29       0.1721
      3  C          2.2750   52.9280  131.2170 C.2    29  TYR29       0.2437
      4  O          1.6160   51.9020  131.3590 O.2    29  TYR29      -0.2733
      5  CB         4.5660   52.0300  130.7650 C.3    29  TYR29       0.0547
      6  CG         5.0640   52.6590  129.4870 C.ar   29  TYR29      -0.0200
      7  CD1        6.3250   53.2540  129.4270 C.ar   29  TYR29      -0.0009
      8  CD2        4.2710   52.6700  128.3390 C.ar   29  TYR29      -0.0009
      9  CE1        6.7850   53.8420  128.2530 C.ar   29  TYR29       0.0417
     10  CE2        4.7200   53.2590  127.1620 C.ar   29  TYR29       0.0417
     11  CZ         5.9780   53.8390  127.1250 C.ar   29  TYR29       0.1957
     12  OH         6.4380   54.3990  125.9570 O.3    29  TYR29      -0.2866
     13  N          1.7460   54.0400  130.6910 N.am   30  PRO30      -0.2718
     14  CA         0.3430   54.1130  130.2730 C.3    30  PRO30       0.1535
     15  C         -0.0380   53.3820  128.9870 C.2    30  PRO30       0.2599
     16  O          0.8130   53.0460  128.1600 O.2    30  PRO30      -0.2715
     17  CB         0.1030   55.6140  130.1800 C.3    30  PRO30       0.0310
     18  CG         1.4050   56.0990  129.6350 C.3    30  PRO30       0.0237
     19  CD         2.4420   55.3130  130.4240 C.3    30  PRO30       0.0939
     20  N         -1.3390   53.1570  128.8400 N.am   31  GLY31      -0.1941
     21  CA        -1.8790   52.4780  127.6790 C.3    31  GLY31       0.2014
     22  C         -3.3890   52.6210  127.6710 C.2    31  GLY31       0.2639
     23  O         -3.9880   53.0240  128.6720 O.2    31  GLY31      -0.2714
     24  N         -4.0080   52.2810  126.5450 N.am   32  GLY32      -0.1954
     25  CA        -5.4470   52.4060  126.4140 C.3    32  GLY32       0.1869
     26  C         -6.3170   51.8710  127.5360 C.2    32  GLY32       0.2309
     27  O         -7.0910   52.6170  128.1360 O.2    32  GLY32      -0.2863
     28  N         10.4420   50.8420  129.0910 N.3    54  HIS54      -0.1226
     29  CA         9.8850   49.5060  128.8700 C.3    54  HIS54       0.1752
     30  C          9.2850   49.0020  130.1890 C.2    54  HIS54       0.2595
     31  O          9.8650   49.2100  131.2540 O.2    54  HIS54      -0.2718
     32  CB        11.0240   48.5870  128.3980 C.3    54  HIS54       0.0759
     33  CG        10.5810   47.2420  127.9070 C.ar   54  HIS54       0.0818
     34  ND1        9.9630   46.3150  128.7190 N.ar   54  HIS54      -0.2268
     35  CD2       10.7260   46.6470  126.6980 C.ar   54  HIS54       0.1154
     36  CE1        9.7500   45.2060  128.0320 C.ar   54  HIS54       0.1986
     37  NE2       10.2050   45.3820  126.8040 N.ar   54  HIS54      -0.2212
     38  N          8.1320   48.3410  130.1300 N.am   55  GLU55      -0.1979
     39  CA         7.4960   47.8430  131.3540 C.3    55  GLU55       0.1602
     40  C          8.3820   46.9190  132.1870 C.2    55  GLU55       0.2287
     41  O          8.2230   46.8420  133.4070 O.2    55  GLU55      -0.2864
     42  CB         6.1780   47.1280  131.0420 C.3    55  GLU55       0.0415
     43  CG         5.0580   48.0470  130.5910 C.3    55  GLU55       0.1163
     44  CD         5.0740   48.3120  129.0990 C.2    55  GLU55       0.3649
     45  OE1        6.0030   47.8310  128.4060 O.co2  55  GLU55      -0.2457
     46  OE2        4.1450   49.0000  128.6230 O.co2  55  GLU55      -0.2457
     47  N         -0.4860   48.8640  131.2690 N.3    78  THR78      -0.1218
     48  CA        -1.7010   48.6220  130.5100 C.3    78  THR78       0.1862
     49  C         -1.9330   47.1350  130.2290 C.2    78  THR78       0.2287
     50  O         -1.1980   46.2720  130.7180 O.2    78  THR78      -0.2866
     51  CB        -1.6960   49.4280  129.1840 C.3    78  THR78       0.1770
     52  OG1       -3.0440   49.5920  128.7250 O.3    78  THR78      -0.2211
     53  CG2       -0.8830   48.7170  128.1090 C.3    78  THR78       0.0375
     54  N          0.3480   43.6680  125.8610 N.3    81  PRO81      -0.2102
     55  CA         1.8120   43.7510  125.9130 C.3    81  PRO81       0.1504
     56  C          2.3350   44.4560  127.1610 C.2    81  PRO81       0.2576
     57  O          3.4420   44.1800  127.6250 O.2    81  PRO81      -0.2718
     58  CB         2.1610   44.4850  124.6200 C.3    81  PRO81       0.0282
     59  CG         0.9900   45.4020  124.4360 C.3    81  PRO81       0.0208
     60  CD        -0.1920   44.5200  124.7840 C.3    81  PRO81       0.0893
     61  N          1.5410   45.3720  127.7010 N.am   82  GLY82      -0.1957
     62  CA         1.9630   46.0610  128.9050 C.3    82  GLY82       0.1869
     63  C          2.0840   45.0430  130.0280 C.2    82  GLY82       0.2309
     64  O          3.0500   45.0520  130.7920 O.2    82  GLY82      -0.2863
     65  N          4.7860   42.1940  129.3720 N.3    85  ASN85      -0.1240
     66  CA         6.1270   42.7530  129.5550 C.3    85  ASN85       0.1653
     67  C          6.5850   42.8090  131.0190 C.2    85  ASN85       0.2266
     68  O          7.7370   43.1280  131.2860 O.2    85  ASN85      -0.2867
     69  CB         6.2170   44.1650  128.9660 C.3    85  ASN85       0.1155
     70  CG         6.5360   44.1700  127.4750 C.2    85  ASN85       0.2627
     71  OD1        6.4580   45.2110  126.8200 O.2    85  ASN85      -0.2716
     72  ND2        6.9080   43.0190  126.9400 N.am   85  ASN85      -0.0877
     73  N         -5.5400   44.2270  122.2300 N.3   118  GLN118     -0.1245
     74  CA        -4.5940   44.1690  123.3410 C.3   118  GLN118      0.1566
     75  C         -5.0920   43.3900  124.5570 C.2   118  GLN118      0.2260
     76  O         -4.8160   43.7640  125.7000 O.2   118  GLN118     -0.2867
     77  CB        -4.1970   45.5850  123.7690 C.3   118  GLN118      0.0367
     78  CG        -3.6450   46.4330  122.6320 C.3   118  GLN118      0.0905
     79  CD        -2.8690   47.6380  123.1230 C.2   118  GLN118      0.2608
     80  OE1       -3.3780   48.4490  123.8950 O.2   118  GLN118     -0.2717
     81  NE2       -1.6260   47.7610  122.6720 N.am  118  GLN118     -0.0878
@<TRIPOS>BOND
     1    73    74    1
     2    78    79    1
     3    78    77    1
     4    81    79   am
     5    79    80    2
     6    74    77    1
     7    74    75    1
     8    59    58    1
     9    59    60    1
    10    75    76    2
    11    58    55    1
    12    60    54    1
    13    54    55    1
    14    55    56    1
    15    12    11    1
    16    25    24    1
    17    25    26    1
    18    24    22   am
    19    35    37   ar
    20    35    33   ar
    21    37    36   ar
    22    71    70    2
    23    72    70   am
    24    11    10   ar
    25    11     9   ar
    26    56    57    2
    27    56    61   am
    28    10     8   ar
    29    70    69    1
    30    26    27    2
    31    22    21    1
    32    22    23    2
    33    21    20    1
    34    61    62    1
    35    33    32    1
    36    33    34   ar
    37    36    34   ar
    38    53    51    1
    39    16    15    2
    40     9     7   ar
    41     8     6   ar
    42    32    29    1
    43    45    44   ar
    44    46    44   ar
    45    52    51    1
    46    20    15   am
    47    29    28    1
    48    29    30    1
    49    62    63    1
    50    69    66    1
    51    15    14    1
    52    44    43    1
    53    51    48    1
    54    65    66    1
    55     7     6   ar
    56     6     5    1
    57    66    67    1
    58    18    17    1
    59    18    19    1
    60    63    64    2
    61    38    30   am
    62    38    39    1
    63    17    14    1
    64    30    31    2
    65    49    48    1
    66    49    50    2
    67    14    13    1
    68    19    13    1
    69    48    47    1
    70    43    42    1
    71    13     3   am
    72     5     2    1
    73    67    68    2
    74    42    39    1
    75     3     4    2
    76     3     2    1
    77    39    40    1
    78     2     1    1
    79    40    41    2
