@<TRIPOS>MOLECULE
tmp/1t9bB00.pdb
 80 75 0 0 0
SMALL
GASTEIGER

@<TRIPOS>ATOM
      1  N         22.1510   29.9780  127.5080 N.3    31  GLY31      -0.1210
      2  CA        21.9670   29.9670  128.9470 C.3    31  GLY31       0.1956
      3  C         22.2950   28.5780  129.4630 C.2    31  GLY31       0.2612
      4  O         22.4080   27.6370  128.6790 O.2    31  GLY31      -0.2717
      5  N         22.4410   28.4370  130.7760 N.am   32  GLY32      -0.1942
      6  CA        22.7760   27.1420  131.3480 C.3    32  GLY32       0.2014
      7  C         21.9120   25.9500  130.9510 C.2    32  GLY32       0.2638
      8  O         22.4180   24.9590  130.4220 O.2    32  GLY32      -0.2714
      9  N         20.6100   26.0360  131.2050 N.am   33  ALA33      -0.1977
     10  CA        19.7000   24.9360  130.8970 C.3    33  ALA33       0.1597
     11  C         19.6910   24.5020  129.4370 C.2    33  ALA33       0.2287
     12  O         19.4410   23.3370  129.1320 O.2    33  ALA33      -0.2864
     13  CB        18.2860   25.3020  131.3220 C.3    33  ALA33       0.0319
     14  N         22.3460   24.8460  127.3520 N.3    35  LEU35      -0.1245
     15  CA        23.7080   24.5780  126.8900 C.3    35  LEU35       0.1561
     16  C         23.8800   23.3060  126.0610 C.2    35  LEU35       0.2260
     17  O         24.5580   23.3270  125.0330 O.2    35  LEU35      -0.2867
     18  CB        24.6790   24.5460  128.0760 C.3    35  LEU35       0.0270
     19  CG        25.1590   25.9110  128.5720 C.3    35  LEU35       0.0019
     20  CD1       26.1390   25.7390  129.7200 C.3    35  LEU35       0.0001
     21  CD2       25.8210   26.6520  127.4260 C.3    35  LEU35       0.0001
     22  N         16.2190   28.6210  130.1880 N.3    79  SER79      -0.1217
     23  CA        15.1200   28.5570  131.1430 C.3    79  SER79       0.1889
     24  C         14.9290   29.8600  131.9110 C.2    79  SER79       0.2288
     25  O         15.6410   30.8410  131.6930 O.2    79  SER79      -0.2866
     26  CB        15.3670   27.4280  132.1480 C.3    79  SER79       0.2089
     27  OG        16.5210   27.6980  132.9250 O.3    79  SER79      -0.2183
     28  N         15.0800   23.3310  133.5800 N.3   107  VAL107     -0.1231
     29  CA        15.9080   22.6780  134.5810 C.3   107  VAL107      0.1678
     30  C         15.7330   21.1640  134.4230 C.2   107  VAL107      0.2434
     31  O         14.7640   20.7110  133.8130 O.2   107  VAL107     -0.2733
     32  CB        15.5050   23.1290  136.0080 C.3   107  VAL107      0.0265
     33  CG1       15.6350   24.6440  136.1160 C.3   107  VAL107      0.0020
     34  CG2       14.0740   22.7000  136.3240 C.3   107  VAL107      0.0020
     35  N         16.6820   20.3640  134.9440 N.am  108  PRO108     -0.2729
     36  CA        16.5780   18.9030  134.8270 C.3   108  PRO108      0.1401
     37  C         15.2260   18.4100  135.3380 C.2   108  PRO108      0.2269
     38  O         14.6860   18.9570  136.3020 O.2   108  PRO108     -0.2865
     39  CB        17.7380   18.4030  135.6860 C.3   108  PRO108      0.0296
     40  CG        18.7480   19.4950  135.5520 C.3   108  PRO108      0.0237
     41  CD        17.9030   20.7470  135.6730 C.3   108  PRO108      0.0939
     42  N         14.6440   18.1840  138.9360 N.3   111  ALA111     -0.1245
     43  CA        14.6180   19.4040  139.7370 C.3   111  ALA111      0.1562
     44  C         13.3270   20.1850  139.5500 C.2   111  ALA111      0.2260
     45  O         13.0760   21.1580  140.2590 O.2   111  ALA111     -0.2867
     46  CB        15.8180   20.2860  139.3930 C.3   111  ALA111      0.0290
     47  N         13.9430   25.2990  141.6560 N.3   116  ALA116     -0.1231
     48  CA        15.3430   25.2120  141.2730 C.3   116  ALA116      0.1694
     49  C         15.8490   26.5050  140.6410 C.2   116  ALA116      0.2592
     50  O         15.0680   27.3900  140.2870 O.2   116  ALA116     -0.2718
     51  CB        15.5350   24.0490  140.3080 C.3   116  ALA116      0.0304
     52  N         17.1660   26.6080  140.5090 N.am  117  PHE117     -0.1962
     53  CA        17.7870   27.7800  139.9170 C.3   117  PHE117      0.1771
     54  C         17.1960   28.0300  138.5270 C.2   117  PHE117      0.2619
     55  O         17.1150   27.1150  137.7030 O.2   117  PHE117     -0.2715
     56  CB        19.3030   27.5700  139.8230 C.3   117  PHE117      0.0574
     57  CG        20.0460   28.7390  139.2360 C.ar  117  PHE117     -0.0200
     58  CD1       19.9220   30.0090  139.7900 C.ar  117  PHE117     -0.0042
     59  CD2       20.8690   28.5670  138.1240 C.ar  117  PHE117     -0.0042
     60  CE1       20.6050   31.0950  139.2460 C.ar  117  PHE117     -0.0003
     61  CE2       21.5560   29.6430  137.5730 C.ar  117  PHE117     -0.0003
     62  CZ        21.4230   30.9120  138.1360 C.ar  117  PHE117     -0.0000
     63  N         16.7720   29.2680  138.2880 N.am  118  GLN118     -0.1977
     64  CA        16.1780   29.6760  137.0140 C.3   118  GLN118      0.1601
     65  C         15.0480   28.7720  136.5250 C.2   118  GLN118      0.2287
     66  O         14.9310   28.5080  135.3260 O.2   118  GLN118     -0.2864
     67  CB        17.2550   29.7770  135.9280 C.3   118  GLN118      0.0394
     68  CG        18.3400   30.7950  136.2360 C.3   118  GLN118      0.0908
     69  CD        19.2180   31.1060  135.0360 C.2   118  GLN118      0.2608
     70  OE1       19.8100   30.2130  134.4350 O.2   118  GLN118     -0.2717
     71  NE2       19.3070   32.3810  134.6870 N.am  118  GLN118     -0.0878
     72  N         17.1850   20.1710  130.7400 N.3   167  LYS167     -0.1245
     73  CA        18.6180   20.0090  130.5230 C.3   167  LYS167      0.1561
     74  C         19.0580   18.5450  130.4580 C.2   167  LYS167      0.2260
     75  O         19.9010   18.1870  129.6350 O.2   167  LYS167     -0.2867
     76  CB        19.3900   20.7510  131.6260 C.3   167  LYS167      0.0271
     77  CG        20.9120   20.7200  131.4970 C.3   167  LYS167      0.0035
     78  CD        21.4770   19.3850  131.9630 C.3   167  LYS167      0.0206
     79  CE        22.9510   19.2340  131.6130 C.3   167  LYS167      0.1093
     80  NZ        23.8260   19.3210  132.8150 N.3   167  LYS167     -0.1314
@<TRIPOS>BOND
     1    17    16    2
     2    16    15    1
     3    15    14    1
     4    15    18    1
     5    21    19    1
     6     1     2    1
     7    18    19    1
     8    19    20    1
     9     4     3    2
    10     2     3    1
    11    12    11    2
    12    11    10    1
    13     3     5   am
    14    75    74    2
    15    22    23    1
    16     8     7    2
    17    74    73    1
    18    73    72    1
    19    73    76    1
    20     5     6    1
    21    10     9    1
    22    10    13    1
    23     7     9   am
    24     7     6    1
    25    23    24    1
    26    23    26    1
    27    77    76    1
    28    77    78    1
    29    79    78    1
    30    79    80    1
    31    25    24    2
    32    26    27    1
    33    28    29    1
    34    31    30    2
    35    30    29    1
    36    30    35   am
    37    70    69    2
    38    29    32    1
    39    71    69   am
    40    36    35    1
    41    36    37    1
    42    36    39    1
    43    35    41    1
    44    69    68    1
    45    66    65    2
    46    37    38    2
    47    40    41    1
    48    40    39    1
    49    67    68    1
    50    67    64    1
    51    32    33    1
    52    32    34    1
    53    65    64    1
    54    64    63    1
    55    61    59   ar
    56    61    62   ar
    57    55    54    2
    58    59    57   ar
    59    62    60   ar
    60    63    54   am
    61    54    53    1
    62    42    43    1
    63    57    58   ar
    64    57    56    1
    65    60    58   ar
    66    46    43    1
    67    44    43    1
    68    44    45    2
    69    56    53    1
    70    53    52    1
    71    50    49    2
    72    51    48    1
    73    52    49   am
    74    49    48    1
    75    48    47    1
