@<TRIPOS>MOLECULE
tmp/1t9bB02.pdb
 73 67 0 0 0
SMALL
GASTEIGER

@<TRIPOS>ATOM
      1  N          5.9420   37.9490  125.6290 N.3    88  THR88      -0.1218
      2  CA         5.3290   39.0020  124.8170 C.3    88  THR88       0.1862
      3  C          5.3320   38.6260  123.3330 C.2    88  THR88       0.2287
      4  O          4.3040   38.7210  122.6660 O.2    88  THR88      -0.2866
      5  CB         6.0280   40.3700  125.0310 C.3    88  THR88       0.1770
      6  OG1        5.7270   40.8450  126.3470 O.3    88  THR88      -0.2211
      7  CG2        5.5340   41.4030  124.0130 C.3    88  THR88       0.0375
      8  N          4.1230   50.7760  117.1830 N.3   405  VAL405     -0.1245
      9  CA         2.6940   50.8450  117.4280 C.3   405  VAL405      0.1561
     10  C          2.2800   52.2640  117.7840 C.2   405  VAL405      0.2260
     11  O          2.9020   52.9080  118.6250 O.2   405  VAL405     -0.2867
     12  CB         2.3020   49.8800  118.5610 C.3   405  VAL405      0.0252
     13  CG1        0.8290   50.0460  118.9220 C.3   405  VAL405      0.0019
     14  CG2        2.5840   48.4550  118.1190 C.3   405  VAL405      0.0019
     15  N         -2.1160   42.3860  119.3400 N.3   430  LEU430     -0.1231
     16  CA        -1.6140   42.7320  120.6610 C.3   430  LEU430      0.1693
     17  C         -1.0810   44.1690  120.6470 C.2   430  LEU430      0.2593
     18  O         -1.0970   44.8480  121.6700 O.2   430  LEU430     -0.2718
     19  CB        -0.4940   41.7660  121.0750 C.3   430  LEU430      0.0284
     20  CG        -0.0670   41.7920  122.5490 C.3   430  LEU430      0.0019
     21  CD1       -1.2560   41.3850  123.4160 C.3   430  LEU430      0.0001
     22  CD2        1.1110   40.8460  122.7850 C.3   430  LEU430      0.0001
     23  N         -0.6110   44.6180  119.4830 N.am  431  GLY431     -0.1942
     24  CA        -0.0820   45.9670  119.3570 C.3   431  GLY431      0.2014
     25  C          1.1170   46.1990  120.2560 C.2   431  GLY431      0.2640
     26  O          1.0980   47.0640  121.1280 O.2   431  GLY431     -0.2714
     27  N          2.1740   45.4310  120.0290 N.am  432  THR432     -0.1936
     28  CA         3.3790   45.5250  120.8390 C.3   432  THR432      0.2028
     29  C          4.3700   46.6110  120.4140 C.2   432  THR432      0.2642
     30  O          5.0040   46.5040  119.3680 O.2   432  THR432     -0.2714
     31  CB         4.1220   44.1750  120.8380 C.3   432  THR432      0.1808
     32  OG1        3.2030   43.1250  121.1710 O.3   432  THR432     -0.2208
     33  CG2        5.2560   44.1910  121.8440 C.3   432  THR432      0.0379
     34  N          4.5000   47.6550  121.2300 N.am  433  MET433     -0.1976
     35  CA         5.4560   48.7210  120.9470 C.3   433  MET433      0.1605
     36  C          6.8420   48.0820  121.0440 C.2   433  MET433      0.2287
     37  O          7.0840   47.2630  121.9300 O.2   433  MET433     -0.2864
     38  CB         5.3480   49.8380  121.9900 C.3   433  MET433      0.0413
     39  CG         4.1430   50.7500  121.8440 C.3   433  MET433      0.0598
     40  SD         3.9590   51.8510  123.2650 S.3   433  MET433     -0.1393
     41  CE         5.4480   52.8990  123.0830 C.3   433  MET433      0.0692
     42  N         11.6100   51.1450  123.4270 N.3   463  MET463     -0.1245
     43  CA        11.3740   49.8330  124.0230 C.3   463  MET463      0.1570
     44  C         12.4680   48.8120  123.7150 C.2   463  MET463      0.2261
     45  O         12.9550   48.1240  124.6110 O.2   463  MET463     -0.2867
     46  CB        10.0300   49.2660  123.5520 C.3   463  MET463      0.0387
     47  CG         8.7940   49.9940  124.0740 C.3   463  MET463      0.0595
     48  SD         8.0170   49.1640  125.4760 S.3   463  MET463     -0.1393
     49  CE         6.7880   50.3920  125.9890 C.3   463  MET463      0.0692
     50  N          3.8580   59.7870  123.2180 N.3   488  GLN488     -0.1245
     51  CA         3.2110   58.5070  122.9700 C.3   488  GLN488      0.1566
     52  C          1.9500   58.9840  122.2530 C.2   488  GLN488      0.2260
     53  O          0.8780   59.0860  122.8460 O.2   488  GLN488     -0.2867
     54  CB         2.8570   57.8220  124.2900 C.3   488  GLN488      0.0367
     55  CG         4.0670   57.3730  125.1040 C.3   488  GLN488      0.0905
     56  CD         3.6990   56.9550  126.5220 C.2   488  GLN488      0.2608
     57  OE1        2.7490   56.1970  126.7290 O.2   488  GLN488     -0.2717
     58  NE2        4.4570   57.4440  127.5060 N.am  488  GLN488     -0.0878
     59  N         -0.4950   57.9460  120.0170 N.3   490  MET490     -0.1230
     60  CA        -1.8190   57.3310  120.0120 C.3   490  MET490      0.1702
     61  C         -2.5010   57.5300  121.3630 C.2   490  MET490      0.2592
     62  O         -3.7220   57.6820  121.4320 O.2   490  MET490     -0.2718
     63  CB        -1.7110   55.8350  119.6670 C.3   490  MET490      0.0401
     64  CG        -3.0180   55.1530  119.2090 C.3   490  MET490      0.0596
     65  SD        -3.7480   55.6800  117.6160 S.3   490  MET490     -0.1393
     66  CE        -4.9880   56.9140  118.2470 C.3   490  MET490      0.0692
     67  N         -1.7190   57.5470  122.4380 N.am  491  VAL491     -0.1980
     68  CA        -2.2860   57.7400  123.7640 C.3   491  VAL491      0.1595
     69  C         -2.6250   59.2140  123.9950 C.2   491  VAL491      0.2287
     70  O         -3.6810   59.5250  124.5490 O.2   491  VAL491     -0.2864
     71  CB        -1.3330   57.2320  124.8680 C.3   491  VAL491      0.0276
     72  CG1       -2.0330   57.2870  126.2150 C.3   491  VAL491      0.0022
     73  CG2       -0.9020   55.8000  124.5570 C.3   491  VAL491      0.0022
@<TRIPOS>BOND
     1     8     9    1
     2     9    10    1
     3     9    12    1
     4    65    66    1
     5    65    64    1
     6    10    11    2
     7    14    12    1
     8    12    13    1
     9    64    63    1
    10    15    16    1
    11    24    23    1
    12    24    25    1
    13    30    29    2
    14    23    17   am
    15    63    60    1
    16    60    59    1
    17    60    61    1
    18    27    25   am
    19    27    28    1
    20    25    26    2
    21    29    28    1
    22    29    34   am
    23    17    16    1
    24    17    18    2
    25    16    19    1
    26    31    28    1
    27    31    32    1
    28    31    33    1
    29    35    36    1
    30    35    34    1
    31    35    38    1
    32    36    37    2
    33    19    20    1
    34    61    62    2
    35    61    67   am
    36    39    38    1
    37    39    40    1
    38    52    53    2
    39    52    51    1
    40    67    68    1
    41    20    22    1
    42    20    21    1
    43     4     3    2
    44    51    50    1
    45    51    54    1
    46    41    40    1
    47     3     2    1
    48    42    43    1
    49    46    43    1
    50    46    47    1
    51    44    43    1
    52    44    45    2
    53    68    69    1
    54    68    71    1
    55    69    70    2
    56     7     5    1
    57    47    48    1
    58    54    55    1
    59    73    71    1
    60     2     5    1
    61     2     1    1
    62    71    72    1
    63     5     6    1
    64    55    56    1
    65    48    49    1
    66    56    57    2
    67    56    58   am
