@<TRIPOS>MOLECULE
tmp/1t9bB05.pdb
 92 91 0 0 0
SMALL
GASTEIGER

@<TRIPOS>ATOM
      1  N         19.3880   33.0480  122.3450 N.3    29  TYR29      -0.1228
      2  CA        20.3500   33.5480  123.3080 C.3    29  TYR29       0.1721
      3  C         20.6330   32.3800  124.2530 C.2    29  TYR29       0.2437
      4  O         19.7090   31.8060  124.8270 O.2    29  TYR29      -0.2733
      5  CB        19.7430   34.7120  124.0860 C.3    29  TYR29       0.0547
      6  CG        20.7530   35.6400  124.7200 C.ar   29  TYR29      -0.0200
      7  CD1       21.2290   36.7570  124.0280 C.ar   29  TYR29      -0.0009
      8  CD2       21.2220   35.4170  126.0170 C.ar   29  TYR29      -0.0009
      9  CE1       22.1420   37.6340  124.6110 C.ar   29  TYR29       0.0417
     10  CE2       22.1410   36.2880  126.6120 C.ar   29  TYR29       0.0417
     11  CZ        22.5950   37.3950  125.9020 C.ar   29  TYR29       0.1957
     12  OH        23.4990   38.2630  126.4800 O.3    29  TYR29      -0.2866
     13  N         21.9160   32.0200  124.4270 N.am   30  PRO30      -0.2718
     14  CA        22.3330   30.9130  125.2970 C.3    30  PRO30       0.1535
     15  C         22.1130   31.1000  126.7940 C.2    30  PRO30       0.2599
     16  O         21.9190   32.2160  127.2830 O.2    30  PRO30      -0.2715
     17  CB        23.8100   30.7420  124.9460 C.3    30  PRO30       0.0310
     18  CG        24.2340   32.1420  124.6290 C.3    30  PRO30       0.0237
     19  CD        23.0840   32.6390  123.7740 C.3    30  PRO30       0.0939
     20  N         22.1510   29.9780  127.5080 N.am   31  GLY31      -0.1941
     21  CA        21.9670   29.9670  128.9470 C.3    31  GLY31       0.2014
     22  C         22.2950   28.5780  129.4630 C.2    31  GLY31       0.2639
     23  O         22.4080   27.6370  128.6790 O.2    31  GLY31      -0.2714
     24  N         22.4410   28.4370  130.7760 N.am   32  GLY32      -0.1954
     25  CA        22.7760   27.1420  131.3480 C.3    32  GLY32       0.1869
     26  C         21.9120   25.9500  130.9510 C.2    32  GLY32       0.2309
     27  O         22.4180   24.9590  130.4220 O.2    32  GLY32      -0.2863
     28  N         18.5090   40.8270  123.7700 N.3    54  HIS54      -0.1226
     29  CA        17.4370   40.4830  124.7000 C.3    54  HIS54       0.1752
     30  C         16.5280   39.4490  124.0230 C.2    54  HIS54       0.2595
     31  O         16.2330   39.5570  122.8320 O.2    54  HIS54      -0.2718
     32  CB        16.6500   41.7560  125.0400 C.3    54  HIS54       0.0759
     33  CG        15.6580   41.5940  126.1490 C.ar   54  HIS54       0.0818
     34  ND1       14.5250   40.8140  126.0340 N.ar   54  HIS54      -0.2268
     35  CD2       15.6020   42.1570  127.3800 C.ar   54  HIS54       0.1154
     36  CE1       13.8130   40.9080  127.1430 C.ar   54  HIS54       0.1986
     37  NE2       14.4440   41.7170  127.9760 N.ar   54  HIS54      -0.2212
     38  N         16.0880   38.4460  124.7780 N.am   55  GLU55      -0.1979
     39  CA        15.2290   37.4090  124.2150 C.3    55  GLU55       0.1602
     40  C         13.9810   37.9540  123.5250 C.2    55  GLU55       0.2287
     41  O         13.5490   37.4010  122.5130 O.2    55  GLU55      -0.2864
     42  CB        14.8180   36.3970  125.2940 C.3    55  GLU55       0.0415
     43  CG        15.9300   35.4560  125.7450 C.3    55  GLU55       0.1163
     44  CD        16.8030   36.0320  126.8510 C.2    55  GLU55       0.3649
     45  OE1       16.5080   37.1360  127.3650 O.co2  55  GLU55      -0.2457
     46  OE2       17.7890   35.3640  127.2150 O.co2  55  GLU55      -0.2457
     47  N         17.0720   30.0460  126.9110 N.3    78  THR78      -0.1218
     48  CA        17.3090   29.2560  128.1080 C.3    78  THR78       0.1862
     49  C         16.0960   29.2750  129.0390 C.2    78  THR78       0.2287
     50  O         15.0590   29.8590  128.7150 O.2    78  THR78      -0.2866
     51  CB        18.5770   29.7660  128.8480 C.3    78  THR78       0.1770
     52  OG1       19.0300   28.7690  129.7730 O.3    78  THR78      -0.2211
     53  CG2       18.2870   31.0660  129.5940 C.3    78  THR78       0.0375
     54  N         14.3430   33.3000  133.1910 N.3    81  PRO81      -0.2102
     55  CA        14.2420   34.6220  132.5690 C.3    81  PRO81       0.1504
     56  C         14.3220   34.5880  131.0490 C.2    81  PRO81       0.2576
     57  O         13.7790   35.4610  130.3770 O.2    81  PRO81      -0.2718
     58  CB        15.3930   35.3920  133.2140 C.3    81  PRO81       0.0282
     59  CG        16.4290   34.3250  133.4140 C.3    81  PRO81       0.0208
     60  CD        15.6090   33.1640  133.9370 C.3    81  PRO81       0.0893
     61  N         15.0010   33.5810  130.5080 N.am   82  GLY82      -0.1957
     62  CA        15.1010   33.4730  129.0620 C.3    82  GLY82       0.1869
     63  C         13.7350   33.1810  128.4670 C.2    82  GLY82       0.2309
     64  O         13.3530   33.7440  127.4390 O.2    82  GLY82      -0.2863
     65  N         11.0860   36.0460  129.0680 N.3    85  ASN85      -0.1240
     66  CA        11.3740   37.1660  128.1710 C.3    85  ASN85       0.1653
     67  C         10.7810   36.9870  126.7660 C.2    85  ASN85       0.2266
     68  O         10.8140   37.9160  125.9620 O.2    85  ASN85      -0.2867
     69  CB        12.8880   37.3870  128.0500 C.3    85  ASN85       0.1155
     70  CG        13.4500   38.2740  129.1530 C.2    85  ASN85       0.2627
     71  OD1       14.6640   38.4480  129.2600 O.2    85  ASN85      -0.2716
     72  ND2       12.5720   38.8450  129.9690 N.am   85  ASN85      -0.0877
     73  N         17.1660   26.6080  140.5090 N.3   117  PHE117     -0.1227
     74  CA        17.7870   27.7800  139.9170 C.3   117  PHE117      0.1736
     75  C         17.1960   28.0300  138.5270 C.2   117  PHE117      0.2595
     76  O         17.1150   27.1150  137.7030 O.2   117  PHE117     -0.2718
     77  CB        19.3030   27.5700  139.8230 C.3   117  PHE117      0.0547
     78  CG        20.0460   28.7390  139.2360 C.ar  117  PHE117     -0.0202
     79  CD1       19.9220   30.0090  139.7900 C.ar  117  PHE117     -0.0042
     80  CD2       20.8690   28.5670  138.1240 C.ar  117  PHE117     -0.0042
     81  CE1       20.6050   31.0950  139.2460 C.ar  117  PHE117     -0.0003
     82  CE2       21.5560   29.6430  137.5730 C.ar  117  PHE117     -0.0003
     83  CZ        21.4230   30.9120  138.1360 C.ar  117  PHE117     -0.0000
     84  N         16.7720   29.2680  138.2880 N.am  118  GLN118     -0.1979
     85  CA        16.1780   29.6760  137.0140 C.3   118  GLN118      0.1601
     86  C         15.0480   28.7720  136.5250 C.2   118  GLN118      0.2287
     87  O         14.9310   28.5080  135.3260 O.2   118  GLN118     -0.2864
     88  CB        17.2550   29.7770  135.9280 C.3   118  GLN118      0.0394
     89  CG        18.3400   30.7950  136.2360 C.3   118  GLN118      0.0908
     90  CD        19.2180   31.1060  135.0360 C.2   118  GLN118      0.2608
     91  OE1       19.8100   30.2130  134.4350 O.2   118  GLN118     -0.2717
     92  NE2       19.3070   32.3810  134.6870 N.am  118  GLN118     -0.0878
@<TRIPOS>BOND
     1     1     2    1
     2    41    40    2
     3    31    30    2
     4     2     5    1
     5     2     3    1
     6    40    39    1
     7    28    29    1
     8    19    13    1
     9    19    18    1
    10    30    29    1
    11    30    38   am
    12     7     9   ar
    13     7     6   ar
    14     5     6    1
    15    39    38    1
    16    39    42    1
    17     3    13   am
    18     3     4    2
    19    13    14    1
    20     9    11   ar
    21    18    17    1
    22    29    32    1
    23     6     8   ar
    24    17    14    1
    25    32    33    1
    26    42    43    1
    27    14    15    1
    28    43    44    1
    29    11    12    1
    30    11    10   ar
    31    68    67    2
    32     8    10   ar
    33    34    33   ar
    34    34    36   ar
    35    33    35   ar
    36    67    66    1
    37    15    16    2
    38    15    20   am
    39    44    46   ar
    40    44    45   ar
    41    47    48    1
    42    36    37   ar
    43    35    37   ar
    44    64    63    2
    45    20    21    1
    46    69    66    1
    47    69    70    1
    48    48    51    1
    49    48    49    1
    50    66    65    1
    51    63    62    1
    52    23    22    2
    53    50    49    2
    54    51    53    1
    55    51    52    1
    56    21    22    1
    57    62    61    1
    58    70    71    2
    59    70    72   am
    60    22    24   am
    61    57    56    2
    62    27    26    2
    63    61    56   am
    64    24    25    1
    65    26    25    1
    66    56    55    1
    67    55    54    1
    68    55    58    1
    69    54    60    1
    70    58    59    1
    71    59    60    1
    72    91    90    2
    73    92    90   am
    74    90    89    1
    75    87    86    2
    76    88    89    1
    77    88    85    1
    78    86    85    1
    79    85    84    1
    80    82    80   ar
    81    82    83   ar
    82    76    75    2
    83    80    78   ar
    84    83    81   ar
    85    84    75   am
    86    75    74    1
    87    78    79   ar
    88    78    77    1
    89    81    79   ar
    90    77    74    1
    91    74    73    1
