@<TRIPOS>MOLECULE
tmp/1t9cB00.pdb
 80 75 0 0 0
SMALL
GASTEIGER

@<TRIPOS>ATOM
      1  N         -1.1300  101.3230   49.8210 N.3    32  GLY32      -0.1210
      2  CA        -1.6500  102.0250   50.9760 C.3    32  GLY32       0.1956
      3  C         -3.1570  101.8690   51.0240 C.2    32  GLY32       0.2612
      4  O         -3.7730  101.4490   50.0420 O.2    32  GLY32      -0.2717
      5  N         -3.7520  102.2240   52.1570 N.am   33  GLY33      -0.1942
      6  CA        -5.1880  102.0860   52.3320 C.3    33  GLY33       0.2014
      7  C         -6.1090  102.5820   51.2320 C.2    33  GLY33       0.2638
      8  O         -6.8760  101.8060   50.6620 O.2    33  GLY33      -0.2714
      9  N         -6.0350  103.8740   50.9250 N.am   34  ALA34      -0.1977
     10  CA        -6.8970  104.4750   49.9120 C.3    34  ALA34       0.1597
     11  C         -6.7650  103.9010   48.5070 C.2    34  ALA34       0.2287
     12  O         -7.7110  103.9550   47.7160 O.2    34  ALA34      -0.2864
     13  CB        -6.6620  105.9880   49.8670 C.3    34  ALA34       0.0319
     14  N         -5.9720  100.6650   47.8610 N.3    36  LEU36      -0.1245
     15  CA        -6.1390   99.2170   47.8820 C.3    36  LEU36       0.1561
     16  C         -7.0180   98.6250   46.7740 C.2    36  LEU36       0.2260
     17  O         -6.7010   97.5680   46.2250 O.2    36  LEU36      -0.2867
     18  CB        -6.6600   98.7580   49.2490 C.3    36  LEU36       0.0270
     19  CG        -5.6210   98.7190   50.3770 C.3    36  LEU36       0.0019
     20  CD1       -6.2440   98.1510   51.6410 C.3    36  LEU36       0.0001
     21  CD2       -4.4370   97.8660   49.9530 C.3    36  LEU36       0.0001
     22  N         -2.9550  107.6200   49.2440 N.3    80  SER80      -0.1217
     23  CA        -3.2980  108.9940   49.5870 C.3    80  SER80       0.1889
     24  C         -2.3720  109.5620   50.6650 C.2    80  SER80       0.2288
     25  O         -1.4180  108.9090   51.0960 O.2    80  SER80      -0.2866
     26  CB        -4.7420  109.0600   50.0860 C.3    80  SER80       0.2089
     27  OG        -4.8670  108.3840   51.3260 O.3    80  SER80      -0.2183
     28  N         -8.9750  109.3900   49.5860 N.3   108  VAL108     -0.1231
     29  CA       -10.0310  108.9110   50.4640 C.3   108  VAL108      0.1678
     30  C        -11.3530  108.9730   49.7030 C.2   108  VAL108      0.2434
     31  O        -11.4640  109.6790   48.6990 O.2   108  VAL108     -0.2733
     32  CB       -10.1310  109.7810   51.7410 C.3   108  VAL108      0.0265
     33  CG1       -8.7810  109.7950   52.4510 C.3   108  VAL108      0.0020
     34  CG2      -10.5720  111.2090   51.3860 C.3   108  VAL108      0.0020
     35  N        -12.3690  108.2310   50.1650 N.am  109  PRO109     -0.2729
     36  CA       -13.6790  108.2190   49.5060 C.3   109  PRO109      0.1401
     37  C        -14.1930  109.6340   49.2650 C.2   109  PRO109      0.2269
     38  O        -13.9490  110.5330   50.0760 O.2   109  PRO109     -0.2865
     39  CB       -14.5590  107.4650   50.5010 C.3   109  PRO109      0.0296
     40  CG       -13.5970  106.5470   51.1780 C.3   109  PRO109      0.0237
     41  CD       -12.3940  107.4270   51.3990 C.3   109  PRO109      0.0939
     42  N        -15.6200  111.4340   52.0150 N.3   112  ALA112     -0.1245
     43  CA       -14.7710  111.8230   53.1410 C.3   112  ALA112      0.1562
     44  C        -13.9250  113.0460   52.7920 C.2   112  ALA112      0.2260
     45  O        -13.3590  113.6930   53.6760 O.2   112  ALA112     -0.2867
     46  CB       -13.8740  110.6700   53.5430 C.3   112  ALA112      0.0290
     47  N        -10.1520  113.9740   56.6450 N.3   117  ALA117     -0.1231
     48  CA       -10.1990  112.5320   56.8190 C.3   117  ALA117      0.1694
     49  C         -8.8250  111.9040   57.0140 C.2   117  ALA117      0.2592
     50  O         -7.7890  112.5220   56.7480 O.2   117  ALA117     -0.2718
     51  CB       -10.8940  111.8900   55.6180 C.3   117  ALA117      0.0304
     52  N         -8.8400  110.6610   57.4770 N.am  118  PHE118     -0.1962
     53  CA        -7.6260  109.8960   57.7040 C.3   118  PHE118      0.1771
     54  C         -6.8070  109.8270   56.4110 C.2   118  PHE118      0.2619
     55  O         -7.3050  109.4010   55.3670 O.2   118  PHE118     -0.2715
     56  CB        -8.0030  108.4890   58.1640 C.3   118  PHE118      0.0574
     57  CG        -6.8320  107.5810   58.3650 C.ar  118  PHE118     -0.0200
     58  CD1       -5.8480  107.8930   59.2960 C.ar  118  PHE118     -0.0042
     59  CD2       -6.7250  106.3980   57.6420 C.ar  118  PHE118     -0.0042
     60  CE1       -4.7750  107.0380   59.5120 C.ar  118  PHE118     -0.0003
     61  CE2       -5.6530  105.5310   57.8490 C.ar  118  PHE118     -0.0003
     62  CZ        -4.6740  105.8540   58.7910 C.ar  118  PHE118     -0.0000
     63  N         -5.5530  110.2570   56.4930 N.am  119  GLN119     -0.1977
     64  CA        -4.6460  110.2640   55.3530 C.3   119  GLN119      0.1601
     65  C         -5.1560  111.0530   54.1420 C.2   119  GLN119      0.2287
     66  O         -4.8920  110.6820   52.9920 O.2   119  GLN119     -0.2864
     67  CB        -4.3100  108.8290   54.9300 C.3   119  GLN119      0.0394
     68  CG        -3.7620  107.9630   56.0640 C.3   119  GLN119      0.0908
     69  CD        -2.9380  106.7970   55.5560 C.2   119  GLN119      0.2608
     70  OE1       -3.4150  105.9760   54.7650 O.2   119  GLN119     -0.2717
     71  NE2       -1.6890  106.7190   56.0060 N.am  119  GLN119     -0.0878
     72  N        -10.9800  106.2200   46.6810 N.3   168  LYS168     -0.1245
     73  CA       -11.1690  104.7950   46.9130 C.3   168  LYS168      0.1561
     74  C        -12.5370  104.2720   46.4900 C.2   168  LYS168      0.2260
     75  O        -12.6410  103.1660   45.9600 O.2   168  LYS168     -0.2867
     76  CB       -10.9390  104.4570   48.3860 C.3   168  LYS168      0.0271
     77  CG       -11.2740  103.0160   48.7180 C.3   168  LYS168      0.0035
     78  CD       -10.9960  102.6890   50.1670 C.3   168  LYS168      0.0206
     79  CE       -11.6420  101.3660   50.5490 C.3   168  LYS168      0.1093
     80  NZ       -13.1140  101.3950   50.3010 N.3   168  LYS168     -0.1314
@<TRIPOS>BOND
     1    75    74    2
     2    17    16    2
     3    74    73    1
     4    72    73    1
     5    16    15    1
     6    73    76    1
     7    12    11    2
     8    14    15    1
     9    15    18    1
    10    76    77    1
    11    11    10    1
    12    31    30    2
    13    77    78    1
    14    22    23    1
    15    18    19    1
    16    37    36    1
    17    37    38    2
    18    36    35    1
    19    36    39    1
    20    28    29    1
    21    23    26    1
    22    23    24    1
    23    30    35   am
    24    30    29    1
    25     1     2    1
    26    13    10    1
    27    10     9    1
    28    21    19    1
    29     4     3    2
    30    26    27    1
    31    35    41    1
    32    78    79    1
    33    80    79    1
    34    19    20    1
    35    29    32    1
    36    39    40    1
    37     8     7    2
    38    24    25    2
    39     9     7   am
    40     2     3    1
    41     3     5   am
    42    40    41    1
    43     7     6    1
    44    34    32    1
    45    32    33    1
    46    42    43    1
    47     5     6    1
    48    44    43    1
    49    44    45    2
    50    66    65    2
    51    43    46    1
    52    65    64    1
    53    70    69    2
    54    67    64    1
    55    67    68    1
    56    64    63    1
    57    55    54    2
    58    69    71   am
    59    69    68    1
    60    51    48    1
    61    54    63   am
    62    54    53    1
    63    47    48    1
    64    50    49    2
    65    48    49    1
    66    49    52   am
    67    52    53    1
    68    59    61   ar
    69    59    57   ar
    70    53    56    1
    71    61    62   ar
    72    56    57    1
    73    57    58   ar
    74    62    60   ar
    75    58    60   ar
