@<TRIPOS>MOLECULE
tmp/1t9mA00.pdb
 115 110 0 0 0
SMALL
GASTEIGER

@<TRIPOS>ATOM
      1  N         20.0740   61.3740   90.3240 N.3    37  GLU37      -0.1245
      2  CA        20.5950   61.8890   89.0330 C.3    37  GLU37       0.1567
      3  C         19.8850   63.1950   88.6010 C.2    37  GLU37       0.2260
      4  O         19.2090   63.2730   87.5450 O.2    37  GLU37      -0.2867
      5  CB        20.4840   60.8110   87.9390 C.3    37  GLU37       0.0388
      6  CG        21.2710   59.5610   88.2240 C.3    37  GLU37       0.1160
      7  CD        21.1810   58.4650   87.1700 C.2    37  GLU37       0.3649
      8  OE1       21.1240   58.7660   85.9760 O.co2  37  GLU37      -0.2457
      9  OE2       21.1320   57.2720   87.5700 O.co2  37  GLU37      -0.2457
     10  N         20.7200   64.6930   84.8770 N.3    40  ALA40      -0.1245
     11  CA        20.4920   63.8830   83.6420 C.3    40  ALA40       0.1562
     12  C         19.5630   64.7340   82.7760 C.2    40  ALA40       0.2260
     13  O         18.3420   64.8380   83.0550 O.2    40  ALA40      -0.2867
     14  CB        19.8470   62.5610   83.9770 C.3    40  ALA40       0.0290
     15  N         16.2800   63.2910   70.4690 N.3    54  THR54      -0.1203
     16  CA        16.5540   63.5160   71.8910 C.3    54  THR54       0.1994
     17  C         17.4170   62.3740   72.4500 C.2    54  THR54       0.2618
     18  O         17.4850   61.2220   71.8430 O.2    54  THR54      -0.2717
     19  CB        15.2170   63.5410   72.7340 C.3    54  THR54       0.1784
     20  OG1       14.5140   62.3920   72.3390 O.3    54  THR54      -0.2211
     21  CG2       14.3060   64.7600   72.3990 C.3    54  THR54       0.0376
     22  N         18.0590   62.6530   73.6200 N.am   55  ARG55      -0.1965
     23  CA        18.7380   61.5920   74.3980 C.3    55  ARG55       0.1729
     24  C         19.1340   62.2110   75.7220 C.2    55  ARG55       0.2616
     25  O         19.1030   63.4530   75.8680 O.2    55  ARG55      -0.2715
     26  CB        20.0380   61.0750   73.6750 C.3    55  ARG55       0.0348
     27  CG        21.1700   62.0800   73.6070 C.3    55  ARG55       0.0492
     28  CD        20.7970   63.4900   72.8820 C.3    55  ARG55       0.2205
     29  NE        20.7940   63.1900   71.4490 N.pl3  55  ARG55      -0.0865
     30  CZ        20.3280   63.9800   70.5030 C.cat  55  ARG55       0.5346
     31  NH1       19.8360   65.1390   70.8450 N.pl3  55  ARG55       0.1354
     32  NH2       20.4790   63.6400   69.1920 N.pl3  55  ARG55       0.1354
     33  N         19.5880   61.3760   76.6660 N.am   56  ILE56      -0.1963
     34  CA        20.1190   61.9400   77.8960 C.3    56  ILE56       0.1727
     35  C         21.6350   62.2540   77.7850 C.2    56  ILE56       0.2616
     36  O         22.4000   61.4650   77.2270 O.2    56  ILE56      -0.2715
     37  CB        19.9230   60.9650   79.0400 C.3    56  ILE56       0.0290
     38  CG1       18.3930   60.6610   79.2190 C.3    56  ILE56       0.0022
     39  CG2       20.5540   61.6160   80.3270 C.3    56  ILE56       0.0023
     40  CD1       17.5830   61.9310   79.8260 C.3    56  ILE56       0.0001
     41  N         22.0250   63.3960   78.3430 N.am   57  VAL57      -0.1963
     42  CA        23.4420   63.7330   78.5490 C.3    57  VAL57       0.1727
     43  C         23.4810   64.3230   79.9310 C.2    57  VAL57       0.2616
     44  O         22.4370   64.8020   80.4340 O.2    57  VAL57      -0.2715
     45  CB        23.9720   64.7700   77.5120 C.3    57  VAL57       0.0290
     46  CG1       23.8030   64.2270   76.1010 C.3    57  VAL57       0.0023
     47  CG2       23.3220   66.1970   77.7150 C.3    57  VAL57       0.0023
     48  N         24.6360   64.2740   80.5630 N.am   58  VAL58      -0.1977
     49  CA        24.7790   64.7850   81.9200 C.3    58  VAL58       0.1596
     50  C         25.3610   66.2130   81.8710 C.2    58  VAL58       0.2287
     51  O         26.2390   66.5020   81.0350 O.2    58  VAL58      -0.2864
     52  CB        25.7640   63.8740   82.7500 C.3    58  VAL58       0.0276
     53  CG1       26.0360   64.4440   84.1520 C.3    58  VAL58       0.0022
     54  CG2       25.1670   62.5760   82.9540 C.3    58  VAL58       0.0022
     55  N         29.4340   67.1580   77.9280 N.3    70  ALA70      -0.1231
     56  CA        30.4890   66.5300   77.0950 C.3    70  ALA70       0.1694
     57  C         29.8450   65.5420   76.1180 C.2    70  ALA70       0.2593
     58  O         28.9010   64.8350   76.4940 O.2    70  ALA70      -0.2718
     59  CB        31.4940   65.7640   78.0010 C.3    70  ALA70       0.0304
     60  N         30.3260   65.4740   74.8670 N.am   71  THR71      -0.1939
     61  CA        29.8590   64.4420   74.0000 C.3    71  THR71       0.2028
     62  C         30.8720   64.3160   72.8530 C.2    71  THR71       0.2642
     63  O         31.9780   64.8110   72.9650 O.2    71  THR71      -0.2714
     64  CB        28.4120   64.7890   73.4370 C.3    71  THR71       0.1808
     65  OG1       27.9040   63.6470   72.7410 O.3    71  THR71      -0.2208
     66  CG2       28.4440   65.9930   72.3700 C.3    71  THR71       0.0379
     67  N         30.5110   63.5870   71.8100 N.am   72  HIS72      -0.1973
     68  CA        31.3620   63.4380   70.6400 C.3    72  HIS72       0.1656
     69  C         30.8370   64.2770   69.5020 C.2    72  HIS72       0.2291
     70  O         29.6560   64.2210   69.1490 O.2    72  HIS72      -0.2864
     71  CB        31.5180   61.9610   70.2340 C.3    72  HIS72       0.0771
     72  CG        32.1410   61.1520   71.3200 C.ar   72  HIS72       0.0820
     73  ND1       33.5270   61.0190   71.4710 N.ar   72  HIS72      -0.2267
     74  CD2       31.5780   60.5450   72.3990 C.ar   72  HIS72       0.1154
     75  CE1       33.7670   60.2980   72.5620 C.ar   72  HIS72       0.1986
     76  NE2       32.6020   60.0250   73.1570 N.ar   72  HIS72      -0.2212
     77  N         28.9220   62.4110   66.7850 N.3    75  SER75      -0.1202
     78  CA        27.6610   61.7420   67.1750 C.3    75  SER75       0.2020
     79  C         26.5110   62.4080   66.4080 C.2    75  SER75       0.2619
     80  O         26.6770   63.5010   65.7610 O.2    75  SER75      -0.2717
     81  CB        27.3850   61.8790   68.7050 C.3    75  SER75       0.2103
     82  OG        27.3300   63.2240   69.1160 O.3    75  SER75      -0.2182
     83  N         25.3000   61.8240   66.5020 N.am   76  GLN76      -0.1965
     84  CA        24.1520   62.4970   65.8640 C.3    76  GLN76       0.1733
     85  C         23.9290   63.9150   66.4300 C.2    76  GLN76       0.2616
     86  O         23.7050   64.9110   65.6970 O.2    76  GLN76      -0.2715
     87  CB        22.8410   61.6670   66.0710 C.3    76  GLN76       0.0408
     88  CG        21.6040   62.3460   65.3680 C.3    76  GLN76       0.0908
     89  CD        20.3730   61.4400   65.2450 C.2    76  GLN76       0.2608
     90  OE1       20.4630   60.2050   65.3920 O.2    76  GLN76      -0.2717
     91  NE2       19.2560   62.0320   64.8400 N.am   76  GLN76      -0.0878
     92  N         23.9570   64.0210   67.7470 N.am   77  LYS77      -0.1977
     93  CA        23.7330   65.3240   68.3630 C.3    77  LYS77       0.1596
     94  C         24.7620   66.3090   67.9910 C.2    77  LYS77       0.2287
     95  O         24.4200   67.4990   67.8400 O.2    77  LYS77      -0.2864
     96  CB        23.5880   65.2980   69.8930 C.3    77  LYS77       0.0298
     97  CG        24.9660   65.2950   70.6800 C.3    77  LYS77       0.0038
     98  CD        24.7020   64.8980   72.2040 C.3    77  LYS77       0.0206
     99  CE        24.4060   63.3010   72.3530 C.3    77  LYS77       0.1093
    100  NZ        25.4750   62.5130   71.6270 N.3    77  LYS77      -0.1314
    101  N         31.0210   57.1000   68.4730 N.3   134  GLN134     -0.1231
    102  CA        29.6510   57.2340   69.0020 C.3   134  GLN134      0.1698
    103  C         28.6040   57.4420   67.8810 C.2   134  GLN134      0.2592
    104  O         28.7070   58.3610   67.0630 O.2   134  GLN134     -0.2718
    105  CB        29.6620   58.3600   70.0520 C.3   134  GLN134      0.0381
    106  CG        28.2460   58.6400   70.6910 C.3   134  GLN134      0.0905
    107  CD        28.3130   59.6600   71.7990 C.2   134  GLN134      0.2608
    108  OE1       28.3540   59.3180   73.0400 O.2   134  GLN134     -0.2717
    109  NE2       28.3180   60.8570   71.4260 N.am  134  GLN134     -0.0878
    110  N         27.5930   56.5870   67.9000 N.am  135  SER135     -0.1952
    111  CA        26.4030   56.6430   67.0610 C.3   135  SER135      0.1924
    112  C         26.6030   56.1880   65.5940 C.2   135  SER135      0.2314
    113  O         25.6660   56.1670   64.8240 O.2   135  SER135     -0.2863
    114  CB        25.7080   58.0140   67.1180 C.3   135  SER135      0.2116
    115  OG        25.6130   58.4680   68.4670 O.3   135  SER135     -0.2180
@<TRIPOS>BOND
     1   113   112    2
     2    91    89   am
     3    89    88    1
     4    89    90    2
     5    88    87    1
     6   112   111    1
     7    86    85    2
     8    80    79    2
     9    84    87    1
    10    84    85    1
    11    84    83    1
    12    79    83   am
    13    79    78    1
    14    85    92   am
    15    77    78    1
    16   111   114    1
    17   111   110    1
    18   104   103    2
    19   114   115    1
    20    78    81    1
    21    92    93    1
    22    95    94    2
    23   103   110   am
    24   103   102    1
    25    94    93    1
    26    93    96    1
    27   101   102    1
    28    81    82    1
    29   102   105    1
    30    70    69    2
    31    32    30    1
    32    69    68    1
    33    96    97    1
    34   105   106    1
    35    71    68    1
    36    71    72    1
    37    15    16    1
    38    30    31    1
    39    30    29    2
    40    68    67    1
    41    97    98    1
    42   106   107    1
    43    72    73   ar
    44    72    74   ar
    45   109   107   am
    46    29    28    1
    47    73    75   ar
    48   100    99    1
    49   107   108    2
    50    67    62   am
    51    18    17    2
    52    16    17    1
    53    16    19    1
    54    98    99    1
    55    20    19    1
    56    66    64    1
    57    21    19    1
    58    74    76   ar
    59    17    22   am
    60    75    76   ar
    61    65    64    1
    62    62    63    2
    63    62    61    1
    64    28    27    1
    65    64    61    1
    66    27    26    1
    67    22    23    1
    68    26    23    1
    69    61    60    1
    70    23    24    1
    71    60    57   am
    72    24    25    2
    73    24    33   am
    74    46    45    1
    75    57    58    2
    76    57    56    1
    77    33    34    1
    78    56    55    1
    79    56    59    1
    80    36    35    2
    81    45    47    1
    82    45    42    1
    83    35    34    1
    84    35    41   am
    85    34    37    1
    86    41    42    1
    87    42    43    1
    88    37    38    1
    89    37    39    1
    90    38    40    1
    91    43    44    2
    92    43    48   am
    93    48    49    1
    94    51    50    2
    95    50    49    1
    96    49    52    1
    97    52    54    1
    98    52    53    1
    99    12    13    2
   100    12    11    1
   101    11    14    1
   102    11    10    1
   103     8     7   ar
   104     7     9   ar
   105     7     6    1
   106     4     3    2
   107     5     6    1
   108     5     2    1
   109     3     2    1
   110     2     1    1
