@<TRIPOS>MOLECULE
tmp/1t9mA01.pdb
 96 91 0 0 0
SMALL
GASTEIGER

@<TRIPOS>ATOM
      1  N          2.1860   61.9360   88.8780 N.3     1  LEU1       -0.1245
      2  CA         3.1150   62.5070   89.9130 C.3     1  LEU1        0.1561
      3  C          3.2760   61.6060   91.1590 C.2     1  LEU1        0.2260
      4  O          2.3520   61.4700   91.9840 O.2     1  LEU1       -0.2867
      5  CB         2.7270   63.9560   90.3140 C.3     1  LEU1        0.0270
      6  CG         2.0810   64.9480   89.3060 C.3     1  LEU1        0.0019
      7  CD1        0.5890   65.2120   89.6140 C.3     1  LEU1        0.0001
      8  CD2        2.8500   66.2750   89.2030 C.3     1  LEU1        0.0001
      9  N         14.0030   66.6340   84.7160 N.3    92  TYR92      -0.1241
     10  CA        12.8010   66.2840   85.4480 C.3    92  TYR92       0.1605
     11  C         13.1320   65.5230   86.7240 C.2    92  TYR92       0.2264
     12  O         13.7730   64.4750   86.6730 O.2    92  TYR92      -0.2867
     13  CB        11.7850   65.5600   84.5390 C.3    92  TYR92       0.0534
     14  CG        10.5830   65.0640   85.3650 C.ar   92  TYR92      -0.0201
     15  CD1        9.9010   65.9570   86.2070 C.ar   92  TYR92      -0.0009
     16  CD2       10.1560   63.7400   85.2950 C.ar   92  TYR92      -0.0009
     17  CE1        8.8060   65.5390   86.9990 C.ar   92  TYR92       0.0417
     18  CE2        9.0270   63.2520   86.1270 C.ar   92  TYR92       0.0417
     19  CZ         8.3930   64.1860   86.9690 C.ar   92  TYR92       0.1957
     20  OH         7.3130   63.7880   87.7480 O.3    92  TYR92      -0.2866
     21  N         10.4350   70.5610   87.2570 N.3    99  GLN99      -0.1245
     22  CA        11.0850   70.4900   85.9370 C.3    99  GLN99       0.1566
     23  C         11.8080   71.7870   85.6260 C.2    99  GLN99       0.2260
     24  O         11.4010   72.8860   86.1060 O.2    99  GLN99      -0.2867
     25  CB        10.0030   70.0120   84.9240 C.3    99  GLN99       0.0367
     26  CG         9.6120   70.8320   83.7620 C.3    99  GLN99       0.0905
     27  CD         8.5060   70.0580   82.9620 C.2    99  GLN99       0.2608
     28  OE1        8.8460   69.2860   82.1620 O.2    99  GLN99      -0.2717
     29  NE2        7.2190   70.2390   83.2850 N.am   99  GLN99      -0.0878
     30  N         13.3260   73.6890   82.1400 N.3   101  ILE101     -0.1245
     31  CA        13.4820   73.7120   80.6780 C.3   101  ILE101      0.1561
     32  C         14.5490   74.7460   80.3180 C.2   101  ILE101      0.2260
     33  O         14.4290   75.9550   80.6820 O.2   101  ILE101     -0.2867
     34  CB        12.1360   74.0300   80.0210 C.3   101  ILE101      0.0252
     35  CG1       11.1610   72.9240   80.4890 C.3   101  ILE101      0.0019
     36  CG2       12.2940   74.0940   78.4340 C.3   101  ILE101      0.0019
     37  CD1        9.7130   73.1470   80.0800 C.3   101  ILE101      0.0001
     38  N         12.5960   77.8670   81.7560 N.3   175  GLU175     -0.1245
     39  CA        11.4420   77.7470   82.6040 C.3   175  GLU175      0.1567
     40  C         11.7200   76.9450   83.8370 C.2   175  GLU175      0.2260
     41  O         12.2690   75.8300   83.7380 O.2   175  GLU175     -0.2867
     42  CB        10.2250   77.2190   81.8270 C.3   175  GLU175      0.0388
     43  CG         9.0230   77.0480   82.7470 C.3   175  GLU175      0.1160
     44  CD         7.8320   76.3640   82.0800 C.2   175  GLU175      0.3649
     45  OE1        7.6670   76.5010   80.8220 O.co2 175  GLU175     -0.2457
     46  OE2        6.9900   75.7890   82.8030 O.co2 175  GLU175     -0.2457
     47  N          9.5930   74.9540   86.6730 N.3   177  TRP177     -0.1241
     48  CA         8.1730   74.4750   86.8700 C.3   177  TRP177      0.1605
     49  C          8.1150   73.7750   88.1960 C.2   177  TRP177      0.2264
     50  O          8.8930   72.8580   88.4860 O.2   177  TRP177     -0.2867
     51  CB         7.8210   73.4290   85.7780 C.3   177  TRP177      0.0550
     52  CG         6.4470   72.8500   85.7020 C.ar  177  TRP177      0.0003
     53  CD1        5.4460   73.1680   84.7750 C.ar  177  TRP177      0.0946
     54  CD2        5.9400   71.7870   86.4880 C.ar  177  TRP177      0.0152
     55  NE1        4.3510   72.3520   84.9670 N.ar  177  TRP177     -0.2442
     56  CE2        4.6350   71.4820   85.9990 C.ar  177  TRP177      0.0810
     57  CE3        6.4890   70.9820   87.4990 C.ar  177  TRP177      0.0012
     58  CZ2        3.8470   70.4500   86.5420 C.ar  177  TRP177      0.0191
     59  CZ3        5.7100   69.9340   88.0200 C.ar  177  TRP177      0.0001
     60  CH2        4.3600   69.7300   87.5670 C.ar  177  TRP177      0.0015
     61  N          0.0620   74.5620   88.7030 N.3   185  HIS185     -0.1297
     62  CA         1.5130   74.4560   88.6130 C.3   185  HIS185      0.1306
     63  C          2.1280   75.8200   88.4880 C.3   185  HIS185      0.2013
     64  O          1.5720   76.7580   87.8050 O.3   185  HIS185     -0.2188
     65  CB         1.9210   73.5520   87.4310 C.3   185  HIS185      0.0691
     66  CG         1.2340   72.2310   87.4360 C.ar  185  HIS185      0.0814
     67  ND1        1.1280   71.4500   88.5660 N.ar  185  HIS185     -0.2268
     68  CD2        0.5150   71.6000   86.4800 C.ar  185  HIS185      0.1154
     69  CE1        0.4360   70.3590   88.2880 C.ar  185  HIS185      0.1986
     70  NE2        0.0740   70.4130   87.0190 N.ar  185  HIS185     -0.2212
     71  N          4.8030   78.1230   87.1560 N.3   187  ARG187     -0.1245
     72  CA         5.7120   78.2060   86.0220 C.3   187  ARG187      0.1563
     73  C          6.3350   79.6040   85.9520 C.2   187  ARG187      0.2260
     74  O          5.6810   80.6460   85.6940 O.2   187  ARG187     -0.2867
     75  CB         4.9070   77.9490   84.7450 C.3   187  ARG187      0.0307
     76  CG         4.1540   76.5540   84.7260 C.3   187  ARG187      0.0489
     77  CD         3.4630   76.3070   83.4030 C.3   187  ARG187      0.2205
     78  NE         4.3960   76.2850   82.2510 N.pl3 187  ARG187     -0.0865
     79  CZ         3.9950   76.1500   81.0030 C.cat 187  ARG187      0.5346
     80  NH1        2.6850   76.0520   80.7230 N.pl3 187  ARG187      0.1354
     81  NH2        4.8820   76.1000   80.0290 N.pl3 187  ARG187      0.1354
     82  N          3.6690   81.6890   83.6110 N.3   202  LEU202     -0.1245
     83  CA         2.8220   81.0320   82.6280 C.3   202  LEU202      0.1561
     84  C          1.7420   80.1970   83.3360 C.2   202  LEU202      0.2260
     85  O          1.9360   79.6340   84.4420 O.2   202  LEU202     -0.2867
     86  CB         3.6450   80.1040   81.6960 C.3   202  LEU202      0.0270
     87  CG         4.8670   80.8200   81.0800 C.3   202  LEU202      0.0019
     88  CD1        5.6960   79.7200   80.3710 C.3   202  LEU202      0.0001
     89  CD2        4.4810   81.9010   80.1260 C.3   202  LEU202      0.0001
     90  N         -0.5990   76.9510   83.9290 N.3   204  PRO204     -0.2116
     91  CA        -0.2990   75.5070   83.9200 C.3   204  PRO204      0.1372
     92  C         -0.9560   74.6990   82.8040 C.2   204  PRO204      0.2244
     93  O         -2.0620   75.0160   82.3040 O.2   204  PRO204     -0.2868
     94  CB        -0.8120   75.0010   85.2930 C.3   204  PRO204      0.0268
     95  CG        -1.8330   76.0430   85.7460 C.3   204  PRO204      0.0207
     96  CD        -1.3930   77.3530   85.1240 C.3   204  PRO204      0.0892
@<TRIPOS>BOND
     1    36    34    1
     2    34    35    1
     3    34    31    1
     4    81    79    1
     5    37    35    1
     6    89    87    1
     7    32    31    1
     8    32    33    2
     9    88    87    1
    10    31    30    1
    11    80    79    1
    12    45    44   ar
    13    79    78    2
    14    87    86    1
    15    86    83    1
    16    38    39    1
    17    42    39    1
    18    42    43    1
    19    44    43    1
    20    44    46   ar
    21    28    27    2
    22    78    77    1
    23    93    92    2
    24    39    40    1
    25    83    84    1
    26    83    82    1
    27    92    91    1
    28    27    29   am
    29    27    26    1
    30    84    85    2
    31    77    76    1
    32    41    40    2
    33    26    25    1
    34    91    90    1
    35    91    94    1
    36    90    96    1
    37    13    14    1
    38    13    10    1
    39     9    10    1
    40    76    75    1
    41    75    72    1
    42    53    55   ar
    43    53    52   ar
    44    25    22    1
    45    55    56   ar
    46    96    95    1
    47    94    95    1
    48    16    14   ar
    49    16    18   ar
    50    14    15   ar
    51    10    11    1
    52    23    22    1
    53    23    24    2
    54    74    73    2
    55    52    51    1
    56    52    54   ar
    57    51    48    1
    58    22    21    1
    59    73    72    1
    60    56    54   ar
    61    56    58   ar
    62    72    71    1
    63    18    19   ar
    64    15    17   ar
    65    68    70   ar
    66    68    66   ar
    67    54    57   ar
    68    58    60   ar
    69    12    11    2
    70    47    48    1
    71    48    49    1
    72    19    17   ar
    73    19    20    1
    74    70    69   ar
    75    65    66    1
    76    65    62    1
    77    66    67   ar
    78    57    59   ar
    79    60    59   ar
    80    64    63    1
    81    49    50    2
    82    69    67   ar
    83    63    62    1
    84    62    61    1
    85     1     2    1
    86     8     6    1
    87     6     7    1
    88     6     5    1
    89     2     5    1
    90     2     3    1
    91     3     4    2
