@<TRIPOS>MOLECULE
tmp/1t9sB00.pdb
 181 172 0 0 0
SMALL
GASTEIGER

@<TRIPOS>ATOM
      1  N         64.6590   18.3140   24.8780 N.3    79  TYR79      -0.1227
      2  CA        63.2290   18.3810   25.2090 C.3    79  TYR79       0.1736
      3  C         62.8890   18.5720   26.6920 C.2    79  TYR79       0.2595
      4  O         62.0880   19.4210   27.0240 O.2    79  TYR79      -0.2718
      5  CB        62.5320   17.1130   24.7070 C.3    79  TYR79       0.0548
      6  CG        61.0650   17.0170   25.0540 C.ar   79  TYR79      -0.0200
      7  CD1       60.6040   16.0730   25.9660 C.ar   79  TYR79      -0.0009
      8  CD2       60.1370   17.8670   24.4720 C.ar   79  TYR79      -0.0009
      9  CE1       59.2520   15.9840   26.2900 C.ar   79  TYR79       0.0417
     10  CE2       58.7930   17.7850   24.7920 C.ar   79  TYR79       0.0417
     11  CZ        58.3540   16.8430   25.6970 C.ar   79  TYR79       0.1957
     12  OH        57.0140   16.7490   25.9910 O.3    79  TYR79      -0.2866
     13  N         63.4630   17.7660   27.5750 N.am   80  HIS80      -0.1975
     14  CA        63.1340   17.8120   29.0090 C.3    80  HIS80       0.1656
     15  C         63.8370   18.9560   29.7430 C.2    80  HIS80       0.2291
     16  O         64.5730   18.7510   30.7180 O.2    80  HIS80      -0.2864
     17  CB        63.4840   16.4730   29.6570 C.3    80  HIS80       0.0771
     18  CG        62.6990   15.3150   29.1310 C.ar   80  HIS80       0.0820
     19  ND1       63.2610   14.3250   28.3510 N.ar   80  HIS80      -0.2267
     20  CD2       61.4040   14.9640   29.3060 C.ar   80  HIS80       0.1154
     21  CE1       62.3470   13.4150   28.0700 C.ar   80  HIS80       0.1986
     22  NE2       61.2060   13.7840   28.6270 N.ar   80  HIS80      -0.2212
     23  N         59.6480   22.6700   28.4540 N.3    84  HIS84      -0.1241
     24  CA        58.6540   21.5870   28.5520 C.3    84  HIS84       0.1621
     25  C         57.8270   21.7000   29.8420 C.2    84  HIS84       0.2264
     26  O         56.6190   21.5700   29.8180 O.2    84  HIS84      -0.2867
     27  CB        59.3250   20.2210   28.4920 C.3    84  HIS84       0.0745
     28  CG        58.4720   19.1070   29.0080 C.ar   84  HIS84       0.0817
     29  ND1       57.2770   18.7600   28.4220 N.ar   84  HIS84      -0.2268
     30  CD2       58.6400   18.2600   30.0490 C.ar   84  HIS84       0.1154
     31  CE1       56.7410   17.7500   29.0870 C.ar   84  HIS84       0.1986
     32  NE2       57.5440   17.4260   30.0810 N.ar   84  HIS84      -0.2212
     33  N         57.7510   18.9360   37.5570 N.3   120  HIS120     -0.1226
     34  CA        57.6140   17.5050   37.2430 C.3   120  HIS120      0.1752
     35  C         58.7540   16.7510   36.5260 C.2   120  HIS120      0.2596
     36  O         58.7720   15.5210   36.5710 O.2   120  HIS120     -0.2718
     37  CB        56.2890   17.2400   36.5220 C.3   120  HIS120      0.0759
     38  CG        56.3940   17.2720   35.0400 C.ar  120  HIS120      0.0818
     39  ND1       56.3800   18.4450   34.3190 N.ar  120  HIS120     -0.2268
     40  CD2       56.5140   16.2710   34.1380 C.ar  120  HIS120      0.1154
     41  CE1       56.5100   18.1630   33.0350 C.ar  120  HIS120      0.1986
     42  NE2       56.5860   16.8500   32.8950 N.ar  120  HIS120     -0.2212
     43  N         59.6700   17.4580   35.8690 N.am  121  ASP121     -0.1974
     44  CA        60.7950   16.8310   35.1650 C.3   121  ASP121      0.1709
     45  C         62.1320   17.4490   35.6090 C.2   121  ASP121      0.2293
     46  O         63.1260   17.4040   34.8820 O.2   121  ASP121     -0.2864
     47  CB        60.6220   16.9960   33.6420 C.3   121  ASP121      0.1436
     48  CG        59.8350   15.8700   33.0070 C.2   121  ASP121      0.3671
     49  OD1       59.8270   14.7850   33.5950 O.co2 121  ASP121     -0.2456
     50  OD2       59.2070   15.9730   31.9170 O.co2 121  ASP121     -0.2456
     51  N         66.0430   16.4590   34.8130 N.3   124  HIS124     -0.1241
     52  CA        65.9240   15.3260   33.9020 C.3   124  HIS124      0.1621
     53  C         67.2610   15.1740   33.1630 C.2   124  HIS124      0.2264
     54  O         67.7550   16.1370   32.5990 O.2   124  HIS124     -0.2867
     55  CB        64.8110   15.5710   32.8930 C.3   124  HIS124      0.0745
     56  CG        64.3550   14.3330   32.1910 C.ar  124  HIS124      0.0817
     57  ND1       63.1680   13.7020   32.4910 N.ar  124  HIS124     -0.2268
     58  CD2       64.9240   13.6090   31.2010 C.ar  124  HIS124      0.1154
     59  CE1       63.0320   12.6380   31.7230 C.ar  124  HIS124      0.1986
     60  NE2       64.0830   12.5580   30.9300 N.ar  124  HIS124     -0.2212
     61  N         60.9090   10.0770   38.2510 N.3   150  GLU150     -0.1245
     62  CA        59.8400   10.7940   38.9320 C.3   150  GLU150      0.1567
     63  C         60.1270   10.9910   40.4210 C.2   150  GLU150      0.2260
     64  O         59.8760   12.0600   40.9620 O.2   150  GLU150     -0.2867
     65  CB        58.5170   10.0880   38.6670 C.3   150  GLU150      0.0388
     66  CG        58.1120   10.1400   37.1840 C.3   150  GLU150      0.1160
     67  CD        58.7720    9.0950   36.2640 C.2   150  GLU150      0.3649
     68  OE1       59.3670    8.0900   36.7300 O.co2 150  GLU150     -0.2457
     69  OE2       58.6800    9.2810   35.0310 O.co2 150  GLU150     -0.2457
     70  N         53.1230   11.3720   36.3430 N.3   191  THR191     -0.1218
     71  CA        53.7100   11.6400   35.0130 C.3   191  THR191      0.1862
     72  C         54.5380   10.4870   34.4430 C.2   191  THR191      0.2287
     73  O         55.0510   10.5880   33.3230 O.2   191  THR191     -0.2866
     74  CB        54.5310   12.9300   34.9710 C.3   191  THR191      0.1770
     75  OG1       55.6280   12.8530   35.8920 O.3   191  THR191     -0.2211
     76  CG2       53.6890   14.1300   35.4230 C.3   191  THR191      0.0375
     77  N         54.5140    7.6320   32.5070 N.3   193  LEU193     -0.1245
     78  CA        53.5710    7.1200   31.4890 C.3   193  LEU193      0.1561
     79  C         53.1290    5.6760   31.7300 C.2   193  LEU193      0.2260
     80  O         51.9790    5.3230   31.4690 O.2   193  LEU193     -0.2867
     81  CB        54.1780    7.2310   30.0890 C.3   193  LEU193      0.0270
     82  CG        53.3770    7.7830   28.8960 C.3   193  LEU193      0.0019
     83  CD1       53.5910    6.9250   27.6590 C.3   193  LEU193      0.0001
     84  CD2       51.8960    7.9750   29.1520 C.3   193  LEU193      0.0001
     85  N         51.1710   17.0000   30.5350 N.3   232  ASP232     -0.1225
     86  CA        52.5240   16.5450   30.1950 C.3   232  ASP232      0.1805
     87  C         52.6440   16.2040   28.7060 C.2   232  ASP232      0.2597
     88  O         53.6810   16.4540   28.0850 O.2   232  ASP232     -0.2718
     89  CB        52.8910   15.3520   31.0790 C.3   232  ASP232      0.1424
     90  CG        54.3560   14.9120   30.9630 C.2   232  ASP232      0.3668
     91  OD1       55.2880   15.6840   30.5770 O.co2 232  ASP232     -0.2456
     92  OD2       54.6570   13.7530   31.3210 O.co2 232  ASP232     -0.2456
     93  N         51.5630   15.7080   28.1180 N.am  233  LEU233     -0.1979
     94  CA        51.5650   15.3130   26.7120 C.3   233  LEU233      0.1596
     95  C         50.9860   16.3610   25.7660 C.2   233  LEU233      0.2287
     96  O         50.9700   16.1430   24.5660 O.2   233  LEU233     -0.2864
     97  CB        50.7790   14.0000   26.5470 C.3   233  LEU233      0.0297
     98  CG        51.2660   12.7800   27.3390 C.3   233  LEU233      0.0022
     99  CD1       50.5320   11.4990   26.9430 C.3   233  LEU233      0.0001
    100  CD2       52.7440   12.5900   27.1670 C.3   233  LEU233      0.0001
    101  N         51.8100   18.9330   24.0560 N.3   235  ALA235     -0.1231
    102  CA        52.4380   19.3640   22.8000 C.3   235  ALA235      0.1694
    103  C         51.8030   18.6460   21.6040 C.2   235  ALA235      0.2591
    104  O         51.8370   19.1460   20.4780 O.2   235  ALA235     -0.2718
    105  CB        53.9370   19.1020   22.8230 C.3   235  ALA235      0.0304
    106  N         51.2580   17.4590   21.8600 N.am  236  ILE236     -0.1980
    107  CA        50.5820   16.6500   20.8480 C.3   236  ILE236      0.1595
    108  C         49.2380   17.2610   20.3820 C.2   236  ILE236      0.2287
    109  O         48.6750   16.8030   19.4110 O.2   236  ILE236     -0.2864
    110  CB        50.3760   15.1790   21.3750 C.3   236  ILE236      0.0276
    111  CG1       50.2750   14.1840   20.2210 C.3   236  ILE236      0.0022
    112  CG2       49.1150   15.0610   22.2380 C.3   236  ILE236      0.0022
    113  CD1       51.5670   13.9950   19.4280 C.3   236  ILE236      0.0001
    114  N         53.7500   21.5340   17.0520 N.3   243  GLN243     -0.1245
    115  CA        53.8530   20.0900   17.2690 C.3   243  GLN243      0.1566
    116  C         54.9740   19.4890   16.4190 C.2   243  GLN243      0.2260
    117  O         55.7270   18.6590   16.8970 O.2   243  GLN243     -0.2867
    118  CB        52.5020   19.4030   17.0050 C.3   243  GLN243      0.0367
    119  CG        52.5350   17.9230   16.6100 C.3   243  GLN243      0.0905
    120  CD        53.2570   16.9790   17.5860 C.2   243  GLN243      0.2608
    121  OE1       53.6810   15.9020   17.1670 O.2   243  GLN243     -0.2717
    122  NE2       53.3900   17.3630   18.8620 N.am  243  GLN243     -0.0878
    123  N         58.0290   17.5670   18.3290 N.3   247  ALA247     -0.1245
    124  CA        58.2190   16.1470   18.0220 C.3   247  ALA247      0.1562
    125  C         59.6720   15.8560   17.6520 C.2   247  ALA247      0.2260
    126  O         60.1990   14.8070   18.0010 O.2   247  ALA247     -0.2867
    127  CB        57.3060   15.7210   16.8860 C.3   247  ALA247      0.0290
    128  N         61.7750   15.7890   20.8490 N.3   250  VAL250     -0.1245
    129  CA        61.5540   14.5060   21.5100 C.3   250  VAL250      0.1561
    130  C         62.3800   13.4300   20.7970 C.2   250  VAL250      0.2260
    131  O         63.0590   12.6410   21.4410 O.2   250  VAL250     -0.2867
    132  CB        60.0570   14.1170   21.5250 C.3   250  VAL250      0.0252
    133  CG1       59.8720   12.7100   22.0850 C.3   250  VAL250      0.0019
    134  CG2       59.2490   15.1180   22.3550 C.3   250  VAL250      0.0019
    135  N         65.4310   10.8860   22.1600 N.3   254  PHE254     -0.1241
    136  CA        65.2410    9.4460   22.0220 C.3   254  PHE254      0.1605
    137  C         66.3190    8.7890   21.1510 C.2   254  PHE254      0.2264
    138  O         66.8550    7.7380   21.5130 O.2   254  PHE254     -0.2867
    139  CB        63.8620    9.1290   21.4570 C.3   254  PHE254      0.0534
    140  CG        62.7270    9.2770   22.4470 C.ar  254  PHE254     -0.0203
    141  CD1       62.9530    9.5610   23.7920 C.ar  254  PHE254     -0.0042
    142  CD2       61.4260    9.1420   22.0140 C.ar  254  PHE254     -0.0042
    143  CE1       61.9040    9.6850   24.6720 C.ar  254  PHE254     -0.0003
    144  CE2       60.3650    9.2610   22.9000 C.ar  254  PHE254     -0.0003
    145  CZ        60.6070    9.5310   24.2230 C.ar  254  PHE254     -0.0000
    146  N         61.2290    3.7850   18.2360 N.3   272  LEU272     -0.1245
    147  CA        61.2300    5.1630   18.7200 C.3   272  LEU272      0.1561
    148  C         62.6050    5.7000   19.1590 C.2   272  LEU272      0.2260
    149  O         62.7990    6.9060   19.1530 O.2   272  LEU272     -0.2867
    150  CB        60.1510    5.3850   19.7990 C.3   272  LEU272      0.0270
    151  CG        60.4480    4.9290   21.2180 C.3   272  LEU272      0.0019
    152  CD1       59.5770    5.6840   22.2500 C.3   272  LEU272      0.0001
    153  CD2       60.2570    3.4010   21.3330 C.3   272  LEU272      0.0001
    154  N         55.0140    6.8480   13.6940 N.3   284  MET284     -0.1230
    155  CA        55.2210    6.5880   15.1100 C.3   284  MET284      0.1702
    156  C         54.4210    7.5840   15.9260 C.2   284  MET284      0.2592
    157  O         53.9650    7.2440   17.0050 O.2   284  MET284     -0.2718
    158  CB        56.7020    6.6350   15.4750 C.3   284  MET284      0.0401
    159  CG        57.4850    5.4790   14.8760 C.3   284  MET284      0.0596
    160  SD        59.1490    5.3790   15.5280 S.3   284  MET284     -0.1393
    161  CE        59.8970    6.9230   14.8940 C.3   284  MET284      0.0692
    162  N         54.2320    8.7940   15.3960 N.am  285  GLN285     -0.1979
    163  CA        53.4300    9.8180   16.0640 C.3   285  GLN285      0.1601
    164  C         51.9500    9.4580   15.9910 C.2   285  GLN285      0.2287
    165  O         51.2180    9.7080   16.9440 O.2   285  GLN285     -0.2864
    166  CB        53.6500   11.2170   15.4710 C.3   285  GLN285      0.0394
    167  CG        54.9570   11.9100   15.8960 C.3   285  GLN285      0.0908
    168  CD        55.1080   12.0920   17.3930 C.2   285  GLN285      0.2608
    169  OE1       55.5630   11.1890   18.0830 O.2   285  GLN285     -0.2717
    170  NE2       54.7560   13.2670   17.8940 N.am  285  GLN285     -0.0878
    171  N         51.2900    6.8130   18.5550 N.3   288  PHE288     -0.1241
    172  CA        51.2780    7.3600   19.9130 C.3   288  PHE288      0.1605
    173  C         49.9280    8.0310   20.1820 C.2   288  PHE288      0.2264
    174  O         49.3220    7.8390   21.2390 O.2   288  PHE288     -0.2867
    175  CB        52.4200    8.3600   20.0740 C.3   288  PHE288      0.0534
    176  CG        52.4470    9.0520   21.3980 C.ar  288  PHE288     -0.0203
    177  CD1       52.6110    8.3280   22.5700 C.ar  288  PHE288     -0.0042
    178  CD2       52.3400   10.4280   21.4740 C.ar  288  PHE288     -0.0042
    179  CE1       52.6480    8.9710   23.8020 C.ar  288  PHE288     -0.0003
    180  CE2       52.3810   11.0770   22.7020 C.ar  288  PHE288     -0.0003
    181  CZ        52.5250   10.3480   23.8650 C.ar  288  PHE288     -0.0000
@<TRIPOS>BOND
     1   154   155    1
     2   159   158    1
     3   159   160    1
     4   161   160    1
     5   155   158    1
     6   155   156    1
     7   162   156   am
     8   162   163    1
     9   166   167    1
    10   166   163    1
    11   167   168    1
    12   156   157    2
    13   164   163    1
    14   164   165    2
    15   116   117    2
    16   116   115    1
    17   119   118    1
    18   119   120    1
    19   127   124    1
    20   118   115    1
    21   114   115    1
    22   121   120    2
    23   168   170   am
    24   168   169    2
    25   120   122   am
    26   125   126    2
    27   125   124    1
    28   124   123    1
    29   146   147    1
    30   171   172    1
    31   147   148    1
    32   147   150    1
    33   149   148    2
    34   109   108    2
    35   113   111    1
    36   150   151    1
    37   172   175    1
    38   172   173    1
    39   175   176    1
    40   173   174    2
    41   111   110    1
    42   108   107    1
    43   104   103    2
    44   130   131    2
    45   130   129    1
    46   107   110    1
    47   107   106    1
    48   128   129    1
    49   137   138    2
    50   137   136    1
    51   151   153    1
    52   151   152    1
    53   110   112    1
    54   176   178   ar
    55   176   177   ar
    56   139   136    1
    57   139   140    1
    58   178   180   ar
    59   129   132    1
    60   132   133    1
    61   132   134    1
    62   103   106   am
    63   103   102    1
    64   142   140   ar
    65   142   144   ar
    66   136   135    1
    67   140   141   ar
    68   177   179   ar
    69   180   181   ar
    70   102   105    1
    71   102   101    1
    72   144   145   ar
    73   141   143   ar
    74   179   181   ar
    75   145   143   ar
    76     8    10   ar
    77     8     6   ar
    78    96    95    2
    79     5     6    1
    80     5     2    1
    81    10    11   ar
    82     1     2    1
    83     6     7   ar
    84     2     3    1
    85    11    12    1
    86    11     9   ar
    87    95    94    1
    88     7     9   ar
    89    97    94    1
    90    97    98    1
    91     3     4    2
    92     3    13   am
    93    94    93    1
    94    99    98    1
    95   100    98    1
    96    13    14    1
    97    83    82    1
    98    21    19   ar
    99    21    22   ar
   100    88    87    2
   101    93    87   am
   102    19    18   ar
   103    29    28   ar
   104    29    31   ar
   105    23    24    1
   106    27    24    1
   107    27    28    1
   108    24    25    1
   109    22    20   ar
   110    87    86    1
   111    82    84    1
   112    82    81    1
   113    28    30   ar
   114    14    17    1
   115    14    15    1
   116    31    32   ar
   117    18    20   ar
   118    18    17    1
   119    15    16    2
   120    26    25    2
   121    30    32   ar
   122    81    78    1
   123    86    85    1
   124    86    89    1
   125    91    90   ar
   126    60    58   ar
   127    60    59   ar
   128    90    89    1
   129    90    92   ar
   130    58    56   ar
   131    80    79    2
   132    78    79    1
   133    78    77    1
   134    59    57   ar
   135    50    48   ar
   136    56    57   ar
   137    56    55    1
   138    54    53    2
   139    55    52    1
   140    42    41   ar
   141    42    40   ar
   142    48    49   ar
   143    48    47    1
   144    41    39   ar
   145    53    52    1
   146    73    72    2
   147    47    44    1
   148    52    51    1
   149    40    38   ar
   150    39    38   ar
   151    72    71    1
   152    46    45    2
   153    74    71    1
   154    74    76    1
   155    74    75    1
   156    71    70    1
   157    69    67   ar
   158    38    37    1
   159    44    45    1
   160    44    43    1
   161    43    35   am
   162    67    68   ar
   163    67    66    1
   164    37    34    1
   165    35    36    2
   166    35    34    1
   167    66    65    1
   168    34    33    1
   169    61    62    1
   170    65    62    1
   171    62    63    1
   172    63    64    2
