@<TRIPOS>MOLECULE
tmp/1ta0A00.pdb
 99 93 0 0 0
SMALL
GASTEIGER

@<TRIPOS>ATOM
      1  N         75.4930   23.1600   35.1020 N.3    22  ASP22      -0.1239
      2  CA        75.4170   22.1930   36.1890 C.3    22  ASP22       0.1674
      3  C         76.5140   22.2560   37.2460 C.2    22  ASP22       0.2266
      4  O         77.7050   22.1460   36.9410 O.2    22  ASP22      -0.2867
      5  CB        75.3120   20.7880   35.6020 C.3    22  ASP22       0.1410
      6  CG        73.9920   20.5740   34.8930 C.2    22  ASP22       0.3668
      7  OD1       72.9430   20.7070   35.5590 O.co2  22  ASP22      -0.2456
      8  OD2       73.9980   20.2920   33.6780 O.co2  22  ASP22      -0.2456
      9  N         70.6150   20.2280   39.5570 N.3    28  SER28      -0.1202
     10  CA        69.3610   19.5700   39.2180 C.3    28  SER28       0.2020
     11  C         69.3650   18.0890   39.5960 C.2    28  SER28       0.2619
     12  O         70.4230   17.4810   39.7710 O.2    28  SER28      -0.2717
     13  CB        69.0930   19.7230   37.7160 C.3    28  SER28       0.2103
     14  OG        69.2140   21.0810   37.3170 O.3    28  SER28      -0.2182
     15  N         68.1750   17.5110   39.7170 N.am   29  SER29      -0.1937
     16  CA        68.0540   16.1060   40.0790 C.3    29  SER29       0.2055
     17  C         66.6970   15.5290   39.6980 C.2    29  SER29       0.2643
     18  O         65.7160   16.2610   39.5460 O.2    29  SER29      -0.2714
     19  CB        68.2660   15.9340   41.5850 C.3    29  SER29       0.2130
     20  OG        68.0570   14.5870   41.9730 O.3    29  SER29      -0.2179
     21  N         66.6510   14.2100   39.5460 N.am   30  PHE30      -0.1973
     22  CA        65.4100   13.5410   39.2100 C.3    30  PHE30       0.1639
     23  C         64.6510   13.1660   40.4760 C.2    30  PHE30       0.2290
     24  O         63.4300   13.0010   40.4490 O.2    30  PHE30      -0.2864
     25  CB        65.6790   12.2910   38.3700 C.3    30  PHE30       0.0560
     26  CG        65.9300   12.5820   36.9220 C.ar   30  PHE30      -0.0200
     27  CD1       67.2010   12.4330   36.3760 C.ar   30  PHE30      -0.0042
     28  CD2       64.8910   13.0040   36.0990 C.ar   30  PHE30      -0.0042
     29  CE1       67.4340   12.7040   35.0310 C.ar   30  PHE30      -0.0003
     30  CE2       65.1130   13.2780   34.7530 C.ar   30  PHE30      -0.0003
     31  CZ        66.3880   13.1250   34.2180 C.ar   30  PHE30      -0.0000
     32  N         61.1230   17.0820   31.2410 N.3    42  VAL42      -0.1245
     33  CA        62.1530   16.7970   30.2520 C.3    42  VAL42       0.1561
     34  C         61.8740   15.4080   29.7020 C.2    42  VAL42       0.2260
     35  O         61.7630   14.4450   30.4590 O.2    42  VAL42      -0.2867
     36  CB        63.5700   16.8280   30.8640 C.3    42  VAL42       0.0252
     37  CG1       64.5990   16.4300   29.8070 C.3    42  VAL42       0.0019
     38  CG2       63.8720   18.2210   31.3940 C.3    42  VAL42       0.0019
     39  N         62.6990   11.9790   27.9570 N.3    44  ILE44      -0.1245
     40  CA        63.8330   11.0790   27.8060 C.3    44  ILE44       0.1561
     41  C         63.3280    9.7200   27.3380 C.2    44  ILE44       0.2260
     42  O         62.6350    9.0180   28.0740 O.2    44  ILE44      -0.2867
     43  CB        64.5890   10.9050   29.1380 C.3    44  ILE44       0.0252
     44  CG1       64.9950   12.2760   29.6870 C.3    44  ILE44       0.0019
     45  CG2       65.8240   10.0420   28.9220 C.3    44  ILE44       0.0019
     46  CD1       65.6550   12.2300   31.0450 C.3    44  ILE44       0.0001
     47  N         62.1040   17.3340   36.4790 N.3    51  VAL51      -0.1245
     48  CA        63.4650   17.6580   36.8880 C.3    51  VAL51       0.1561
     49  C         63.4230   18.7890   37.9180 C.2    51  VAL51       0.2260
     50  O         62.9250   19.8750   37.6280 O.2    51  VAL51      -0.2867
     51  CB        64.3190   18.0990   35.6760 C.3    51  VAL51       0.0252
     52  CG1       65.7100   18.5300   36.1400 C.3    51  VAL51       0.0019
     53  CG2       64.4330   16.9500   34.6770 C.3    51  VAL51       0.0019
     54  N         75.3980   19.5360   28.7370 N.3    78  SER78      -0.1202
     55  CA        74.0850   18.8970   28.7560 C.3    78  SER78       0.2020
     56  C         73.2990   19.2120   27.4830 C.2    78  SER78       0.2618
     57  O         73.7110   20.0460   26.6750 O.2    78  SER78      -0.2717
     58  CB        73.2890   19.3500   29.9860 C.3    78  SER78       0.2103
     59  OG        73.0230   20.7460   29.9520 O.3    78  SER78      -0.2182
     60  N         72.1640   18.5430   27.3120 N.am   79  LEU79      -0.1979
     61  CA        71.3190   18.7390   26.1380 C.3    79  LEU79       0.1596
     62  C         70.4160   19.9630   26.2770 C.2    79  LEU79       0.2287
     63  O         69.9890   20.3110   27.3770 O.2    79  LEU79      -0.2864
     64  CB        70.4760   17.4820   25.9010 C.3    79  LEU79       0.0297
     65  CG        71.3210   16.2090   25.7500 C.3    79  LEU79       0.0022
     66  CD1       70.4310   14.9690   25.7440 C.3    79  LEU79       0.0001
     67  CD2       72.1280   16.2940   24.4680 C.3    79  LEU79       0.0001
     68  N         67.3040   20.4190   25.4750 N.3    81  LYS81      -0.1231
     69  CA        65.9520   20.1460   25.9550 C.3    81  LYS81       0.1693
     70  C         65.8470   20.3880   27.4540 C.2    81  LYS81       0.2592
     71  O         64.7570   20.5820   27.9910 O.2    81  LYS81      -0.2718
     72  CB        65.5380   18.7100   25.6220 C.3    81  LYS81       0.0285
     73  CG        66.3950   17.6350   26.2580 C.3    81  LYS81       0.0035
     74  CD        65.9300   16.2520   25.8130 C.3    81  LYS81       0.0206
     75  CE        66.7260   15.1540   26.5020 C.3    81  LYS81       0.1093
     76  NZ        66.3190   13.8000   26.0290 N.3    81  LYS81      -0.1314
     77  N         66.9930   20.3820   28.1220 N.am   82  TYR82      -0.1976
     78  CA        67.0450   20.6180   29.5550 C.3    82  TYR82       0.1639
     79  C         67.6080   22.0060   29.8500 C.2    82  TYR82       0.2290
     80  O         66.9640   22.8220   30.5110 O.2    82  TYR82      -0.2864
     81  CB        67.9110   19.5490   30.2280 C.3    82  TYR82       0.0560
     82  CG        68.5480   19.9950   31.5260 C.ar   82  TYR82      -0.0198
     83  CD1       67.7850   20.1780   32.6810 C.ar   82  TYR82      -0.0009
     84  CD2       69.9170   20.2550   31.5900 C.ar   82  TYR82      -0.0009
     85  CE1       68.3730   20.6090   33.8660 C.ar   82  TYR82       0.0417
     86  CE2       70.5140   20.6870   32.7650 C.ar   82  TYR82       0.0417
     87  CZ        69.7400   20.8620   33.8970 C.ar   82  TYR82       0.1957
     88  OH        70.3370   21.2970   35.0510 O.3    82  TYR82      -0.2866
     89  N         75.7210   20.5030   24.4760 N.3   102  ARG102     -0.1245
     90  CA        76.5010   19.2860   24.2620 C.3   102  ARG102      0.1563
     91  C         77.2240   19.1510   22.9140 C.2   102  ARG102      0.2260
     92  O         78.4250   18.8890   22.8880 O.2   102  ARG102     -0.2867
     93  CB        75.6080   18.0650   24.4670 C.3   102  ARG102      0.0307
     94  CG        76.2580   16.7500   24.0730 C.3   102  ARG102      0.0489
     95  CD        76.5630   15.9060   25.2850 C.3   102  ARG102      0.2205
     96  NE        75.3500   15.5320   25.9990 N.pl3 102  ARG102     -0.0865
     97  CZ        75.3420   14.9170   27.1760 C.cat 102  ARG102      0.5346
     98  NH1       76.4870   14.6100   27.7670 N.pl3 102  ARG102      0.1354
     99  NH2       74.1930   14.6130   27.7630 N.pl3 102  ARG102      0.1354
@<TRIPOS>BOND
     1    92    91    2
     2    91    90    1
     3    94    93    1
     4    94    95    1
     5    90    93    1
     6    90    89    1
     7    67    65    1
     8    95    96    1
     9    68    69    1
    10    72    69    1
    11    72    73    1
    12    66    65    1
    13    65    64    1
    14    74    73    1
    15    74    75    1
    16    64    61    1
    17    69    70    1
    18    96    97    2
    19    76    75    1
    20    61    62    1
    21    61    60    1
    22    62    63    2
    23    57    56    2
    24    97    99    1
    25    97    98    1
    26    60    56   am
    27    41    40    1
    28    41    42    2
    29    70    71    2
    30    70    77   am
    31    56    55    1
    32    40    39    1
    33    40    43    1
    34    77    78    1
    35    54    55    1
    36    55    58    1
    37    45    43    1
    38    43    44    1
    39    78    79    1
    40    78    81    1
    41    44    46    1
    42    34    33    1
    43    34    35    2
    44    37    36    1
    45    79    80    2
    46    59    58    1
    47    81    82    1
    48    33    36    1
    49    33    32    1
    50    36    38    1
    51    82    84   ar
    52    82    83   ar
    53    84    86   ar
    54    83    85   ar
    55    86    87   ar
    56     8     6   ar
    57    85    87   ar
    58    87    88    1
    59    31    30   ar
    60    31    29   ar
    61    53    51    1
    62    30    28   ar
    63     6     7   ar
    64     6     5    1
    65    29    27   ar
    66     1     2    1
    67     5     2    1
    68    51    52    1
    69    51    48    1
    70    28    26   ar
    71     2     3    1
    72    27    26   ar
    73    47    48    1
    74    48    49    1
    75    26    25    1
    76     4     3    2
    77    14    13    1
    78    50    49    2
    79    13    10    1
    80    25    22    1
    81    22    21    1
    82    22    23    1
    83    10     9    1
    84    10    11    1
    85    18    17    2
    86    21    17   am
    87    11    15   am
    88    11    12    2
    89    17    16    1
    90    15    16    1
    91    16    19    1
    92    24    23    2
    93    19    20    1
