@<TRIPOS>MOLECULE
tmp/1ta6A01.pdb
 189 188 0 0 0
SMALL
GASTEIGER

@<TRIPOS>ATOM
      1  N         22.3400   -6.9170   18.5480 N.3    69  HIS69      -0.1241
      2  CA        22.2170   -8.2720   18.0260 C.3    69  HIS69       0.1621
      3  C         21.4920   -8.3540   16.6860 C.2    69  HIS69       0.2264
      4  O         21.4610   -9.4130   16.0570 O.2    69  HIS69      -0.2867
      5  CB        21.5700   -9.2050   19.0400 C.3    69  HIS69       0.0745
      6  CG        20.0820   -9.0940   19.1240 C.ar   69  HIS69       0.0817
      7  ND1       19.4510   -8.3970   20.1300 N.ar   69  HIS69      -0.2268
      8  CD2       19.1000   -9.6640   18.3900 C.ar   69  HIS69       0.1154
      9  CE1       18.1440   -8.5500   20.0240 C.ar   69  HIS69       0.1986
     10  NE2       17.9000   -9.3140   18.9760 N.ar   69  HIS69      -0.2212
     11  N         25.6340  -10.9960   15.5640 N.3    73  TYR73      -0.1241
     12  CA        25.3210  -12.1230   16.4320 C.3    73  TYR73       0.1605
     13  C         26.0320  -13.3710   15.9210 C.2    73  TYR73       0.2264
     14  O         25.4030  -14.2460   15.3060 O.2    73  TYR73      -0.2867
     15  CB        23.8250  -12.3780   16.5110 C.3    73  TYR73       0.0534
     16  CG        23.4820  -13.2090   17.7120 C.ar   73  TYR73      -0.0201
     17  CD1       23.8470  -12.7840   18.9900 C.ar   73  TYR73      -0.0009
     18  CD2       22.8090  -14.4230   17.5870 C.ar   73  TYR73      -0.0009
     19  CE1       23.5490  -13.5410   20.1130 C.ar   73  TYR73       0.0417
     20  CE2       22.5060  -15.1900   18.7090 C.ar   73  TYR73       0.0417
     21  CZ        22.8810  -14.7330   19.9650 C.ar   73  TYR73       0.1957
     22  OH        22.5760  -15.4570   21.0770 O.3    73  TYR73      -0.2866
     23  N         24.7610  -17.0600   15.3150 N.3    76  TRP76      -0.1241
     24  CA        23.8980  -17.3050   14.1520 C.3    76  TRP76       0.1605
     25  C         24.5750  -16.7710   12.8910 C.2    76  TRP76       0.2264
     26  O         23.9110  -16.4810   11.8950 O.2    76  TRP76      -0.2867
     27  CB        22.5430  -16.6110   14.3150 C.3    76  TRP76       0.0550
     28  CG        21.7030  -17.1090   15.4510 C.ar   76  TRP76       0.0003
     29  CD1       21.9650  -18.1740   16.2680 C.ar   76  TRP76       0.0946
     30  CD2       20.4620  -16.5570   15.9010 C.ar   76  TRP76       0.0152
     31  NE1       20.9580  -18.3220   17.1980 N.ar   76  TRP76      -0.2442
     32  CE2       20.0190  -17.3360   16.9960 C.ar   76  TRP76       0.0810
     33  CE3       19.6720  -15.4720   15.4870 C.ar   76  TRP76       0.0012
     34  CZ2       18.8270  -17.0700   17.6870 C.ar   76  TRP76       0.0191
     35  CZ3       18.4840  -15.2040   16.1690 C.ar   76  TRP76       0.0001
     36  CH2       18.0740  -16.0000   17.2590 C.ar   76  TRP76       0.0015
     37  N         27.3880  -13.9710   26.3260 N.3   120  GLU120     -0.1231
     38  CA        26.6640  -14.4540   27.4850 C.3   120  GLU120      0.1699
     39  C         25.1910  -14.0940   27.6690 C.2   120  GLU120      0.2592
     40  O         24.3160  -14.9790   27.6650 O.2   120  GLU120     -0.2718
     41  CB        27.4560  -14.0670   28.7380 C.3   120  GLU120      0.0402
     42  CG        26.9230  -14.6330   30.0400 C.3   120  GLU120      0.1161
     43  CD        27.4400  -13.8880   31.2590 C.2   120  GLU120      0.3649
     44  OE1       28.3880  -13.0680   31.1200 O.co2 120  GLU120     -0.2457
     45  OE2       26.8800  -14.1030   32.3610 O.co2 120  GLU120     -0.2457
     46  N         24.9070  -12.8030   27.8170 N.am  121  ASN121     -0.1960
     47  CA        23.5400  -12.3690   28.0960 C.3   121  ASN121      0.1819
     48  C         23.0570  -11.1450   27.3270 C.2   121  ASN121      0.2621
     49  O         22.0850  -10.5140   27.7330 O.2   121  ASN121     -0.2715
     50  CB        23.4460  -12.0880   29.6020 C.3   121  ASN121      0.1195
     51  CG        24.6030  -11.2200   30.1040 C.2   121  ASN121      0.2630
     52  OD1       25.4280  -10.7380   29.3190 O.2   121  ASN121     -0.2716
     53  ND2       24.6870  -11.0440   31.4040 N.am  121  ASN121     -0.0877
     54  N         23.7260  -10.8130   26.2310 N.am  122  LEU122     -0.1977
     55  CA        23.3550   -9.6360   25.4340 C.3   122  LEU122      0.1596
     56  C         23.3990   -8.3730   26.3050 C.2   122  LEU122      0.2287
     57  O         22.4620   -7.5720   26.3140 O.2   122  LEU122     -0.2864
     58  CB        21.9610   -9.7940   24.7780 C.3   122  LEU122      0.0297
     59  CG        21.7800  -10.8870   23.7040 C.3   122  LEU122      0.0022
     60  CD1       20.3970  -10.7980   23.0430 C.3   122  LEU122      0.0001
     61  CD2       22.8910  -10.7580   22.6640 C.3   122  LEU122      0.0001
     62  N          5.1060  -17.7720   19.5530 N.3   172  GLU172     -0.1245
     63  CA         6.4520  -18.3400   19.6030 C.3   172  GLU172      0.1567
     64  C          6.5990  -19.5010   18.6150 C.2   172  GLU172      0.2260
     65  O          7.6510  -19.5230   17.9430 O.2   172  GLU172     -0.2867
     66  CB         6.7710  -18.8390   21.0110 C.3   172  GLU172      0.0388
     67  CG         8.1860  -19.3490   21.1460 C.3   172  GLU172      0.1160
     68  CD         8.4330  -20.1210   22.4220 C.2   172  GLU172      0.3649
     69  OE1        9.3870  -20.9300   22.4300 O.co2 172  GLU172     -0.2457
     70  OE2        7.7070  -19.9200   23.4210 O.co2 172  GLU172     -0.2457
     71  N         19.9710  -17.0350   33.4310 N.3   197  ILE197     -0.1245
     72  CA        20.8900  -16.0740   32.8310 C.3   197  ILE197      0.1561
     73  C         21.2430  -14.9850   33.8560 C.2   197  ILE197      0.2260
     74  O         20.4050  -14.5800   34.6590 O.2   197  ILE197     -0.2867
     75  CB        20.2660  -15.4470   31.5490 C.3   197  ILE197      0.0252
     76  CG1       19.8790  -16.5540   30.5580 C.3   197  ILE197      0.0019
     77  CG2       21.2510  -14.4800   30.8870 C.3   197  ILE197      0.0019
     78  CD1       21.0350  -17.4680   30.1770 C.3   197  ILE197      0.0001
     79  N          3.8350   -9.9670   25.1020 N.3   217  ASP217     -0.1225
     80  CA         5.2920   -9.9900   25.1020 C.3   217  ASP217      0.1805
     81  C          5.7730   -9.7310   23.6740 C.2   217  ASP217      0.2598
     82  O          4.9760   -9.6950   22.7350 O.2   217  ASP217     -0.2718
     83  CB         5.7560  -11.3780   25.5830 C.3   217  ASP217      0.1424
     84  CG         7.2660  -11.4820   25.8100 C.2   217  ASP217      0.3668
     85  OD1        7.7370  -12.6270   25.9640 O.co2 217  ASP217     -0.2456
     86  OD2        7.9950  -10.4670   25.8720 O.co2 217  ASP217     -0.2456
     87  N          7.0550   -9.4430   23.5270 N.am  218  ALA218     -0.1966
     88  CA         7.6470   -9.2460   22.2300 C.3   218  ALA218      0.1728
     89  C          8.0260  -10.6570   21.7830 C.2   218  ALA218      0.2616
     90  O          7.8800  -11.6000   22.5500 O.2   218  ALA218     -0.2715
     91  CB         8.8770   -8.3690   22.3450 C.3   218  ALA218      0.0334
     92  N          8.5200  -10.8160   20.5640 N.am  219  CYS219     -0.1954
     93  CA         8.8860  -12.1420   20.0770 C.3   219  CYS219      0.1843
     94  C          9.8590  -11.9830   18.9300 C.2   219  CYS219      0.2625
     95  O         10.4110  -10.8950   18.7430 O.2   219  CYS219     -0.2714
     96  CB         7.6260  -12.9130   19.6380 C.3   219  CYS219      0.0997
     97  SG         7.7880  -14.7370   19.5740 S.3   219  CYS219     -0.0797
     98  N         10.1050  -13.0580   18.1790 N.am  220  GLU220     -0.1977
     99  CA        11.0360  -12.9820   17.0520 C.3   220  GLU220      0.1602
    100  C         10.5800  -11.8820   16.0790 C.2   220  GLU220      0.2287
    101  O          9.3880  -11.7600   15.7900 O.2   220  GLU220     -0.2864
    102  CB        11.0370  -14.3220   16.3440 C.3   220  GLU220      0.0415
    103  CG        11.9580  -14.3270   15.1170 C.3   220  GLU220      0.1163
    104  CD        11.9340  -15.6960   14.4760 C.2   220  GLU220      0.3649
    105  OE1       12.6180  -15.8890   13.4810 O.co2 220  GLU220     -0.2457
    106  OE2       11.2230  -16.5640   14.9800 O.co2 220  GLU220     -0.2457
    107  N         12.7750   -7.5570   17.8650 N.3   223  SER223     -0.1217
    108  CA        14.0880   -7.0910   18.3130 C.3   223  SER223      0.1889
    109  C         14.4390   -5.7070   17.7940 C.2   223  SER223      0.2288
    110  O         14.1040   -5.3830   16.6670 O.2   223  SER223     -0.2866
    111  CB        15.1820   -8.0670   17.8620 C.3   223  SER223      0.2089
    112  OG        15.1070   -9.2950   18.5610 O.3   223  SER223     -0.2183
    113  N         13.9300   -3.6690   22.7470 N.3   243  VAL243     -0.1231
    114  CA        13.5740   -5.0940   22.7690 C.3   243  VAL243      0.1692
    115  C         14.8720   -5.8830   22.5940 C.2   243  VAL243      0.2593
    116  O         15.5740   -5.7310   21.5880 O.2   243  VAL243     -0.2718
    117  CB        12.5650   -5.4290   21.6220 C.3   243  VAL243      0.0266
    118  CG1       12.2290   -6.9280   21.6090 C.3   243  VAL243      0.0020
    119  CG2       11.2920   -4.6010   21.7890 C.3   243  VAL243      0.0020
    120  N         15.2160   -6.6900   23.5920 N.am  244  SER244     -0.1938
    121  CA        16.4670   -7.4270   23.5330 C.3   244  SER244      0.2055
    122  C         16.3590   -8.9480   23.4800 C.2   244  SER244      0.2643
    123  O         16.6970   -9.5570   22.4580 O.2   244  SER244     -0.2714
    124  CB        17.3800   -7.0030   24.6960 C.3   244  SER244      0.2130
    125  OG        18.6830   -7.5530   24.5790 O.3   244  SER244     -0.2179
    126  N         15.8880   -9.5710   24.5570 N.am  245  TRP245     -0.1959
    127  CA        15.8250  -11.0250   24.5800 C.3   245  TRP245      0.1771
    128  C         14.8020  -11.5940   25.5180 C.2   245  TRP245      0.2620
    129  O         14.2190  -10.9000   26.3500 O.2   245  TRP245     -0.2715
    130  CB        17.2210  -11.6480   24.8750 C.3   245  TRP245      0.0590
    131  CG        17.8080  -11.3220   26.2600 C.ar  245  TRP245      0.0006
    132  CD1       18.4990  -10.1960   26.6100 C.ar  245  TRP245      0.0946
    133  CD2       17.6900  -12.1060   27.4640 C.ar  245  TRP245      0.0152
    134  NE1       18.8020  -10.2200   27.9460 N.ar  245  TRP245     -0.2442
    135  CE2       18.3240  -11.3810   28.4970 C.ar  245  TRP245      0.0810
    136  CE3       17.1030  -13.3470   27.7690 C.ar  245  TRP245      0.0012
    137  CZ2       18.3890  -11.8510   29.8220 C.ar  245  TRP245      0.0191
    138  CZ3       17.1630  -13.8130   29.0780 C.ar  245  TRP245      0.0001
    139  CH2       17.8050  -13.0590   30.0920 C.ar  245  TRP245      0.0015
    140  N         14.5570  -12.8800   25.3340 N.am  246  GLY246     -0.1940
    141  CA        13.6170  -13.5930   26.1630 C.3   246  GLY246      0.2014
    142  C         13.8880  -15.0650   25.9510 C.2   246  GLY246      0.2639
    143  O         14.7150  -15.4410   25.1170 O.2   246  GLY246     -0.2714
    144  N         13.2520  -15.8930   26.7560 N.am  247  GLU247     -0.1963
    145  CA        13.3880  -17.3310   26.6300 C.3   247  GLU247      0.1733
    146  C         11.9690  -17.7590   26.2650 C.2   247  GLU247      0.2617
    147  O         11.1050  -17.9830   27.1330 O.2   247  GLU247     -0.2715
    148  CB        13.8840  -17.9250   27.9420 C.3   247  GLU247      0.0429
    149  CG        15.2590  -17.3910   28.2980 C.3   247  GLU247      0.1163
    150  CD        15.7340  -17.8300   29.6740 C.2   247  GLU247      0.3649
    151  OE1       16.6600  -18.6640   29.7430 O.co2 247  GLU247     -0.2457
    152  OE2       15.1710  -17.3520   30.6850 O.co2 247  GLU247     -0.2457
    153  N         11.7320  -17.7960   24.9560 N.am  248  GLY248     -0.1940
    154  CA        10.4150  -18.0950   24.4350 C.3   248  GLY248      0.2014
    155  C          9.7070  -16.7480   24.2900 C.2   248  GLY248      0.2639
    156  O         10.3690  -15.6990   24.3490 O.2   248  GLY248     -0.2714
    157  N          8.3880  -16.7690   24.1050 N.am  249  CYS249     -0.1967
    158  CA         7.5840  -15.5600   23.9560 C.3   249  CYS249      0.1712
    159  C          6.2830  -15.7740   24.6980 C.2   249  CYS249      0.2296
    160  O          5.5530  -16.7250   24.4310 O.2   249  CYS249     -0.2864
    161  CB         7.2390  -15.2990   22.4890 C.3   249  CYS249      0.0983
    162  SG         8.6420  -15.2430   21.3520 S.3   249  CYS249     -0.0798
    163  N         10.2590  -10.5620   29.2540 N.3   256  GLY256     -0.1210
    164  CA        11.0940  -10.0480   28.1870 C.3   256  GLY256      0.1956
    165  C         12.1450   -9.1290   28.7890 C.2   256  GLY256      0.2612
    166  O         11.8710   -8.4410   29.7900 O.2   256  GLY256     -0.2717
    167  N         13.3430   -9.1310   28.2150 N.am  257  PHE257     -0.1962
    168  CA        14.4130   -8.2790   28.7040 C.3   257  PHE257      0.1771
    169  C         14.7240   -7.2140   27.6880 C.2   257  PHE257      0.2619
    170  O         14.7610   -7.4730   26.4740 O.2   257  PHE257     -0.2715
    171  CB        15.6460   -9.0860   29.0970 C.3   257  PHE257      0.0574
    172  CG        15.4670   -9.8330   30.3890 C.ar  257  PHE257     -0.0200
    173  CD1       14.6570  -10.9700   30.4410 C.ar  257  PHE257     -0.0042
    174  CD2       16.0530   -9.3620   31.5740 C.ar  257  PHE257     -0.0042
    175  CE1       14.4240  -11.6300   31.6520 C.ar  257  PHE257     -0.0003
    176  CE2       15.8290  -10.0100   32.7830 C.ar  257  PHE257     -0.0003
    177  CZ        15.0130  -11.1470   32.8230 C.ar  257  PHE257     -0.0000
    178  N         14.9160   -6.0070   28.2130 N.am  258  TYR258     -0.1974
    179  CA        15.1430   -4.8120   27.4270 C.3   258  TYR258      0.1639
    180  C         16.4030   -4.0930   27.8190 C.2   258  TYR258      0.2290
    181  O         16.7450   -4.0260   28.9970 O.2   258  TYR258     -0.2864
    182  CB        13.9620   -3.8470   27.6560 C.3   258  TYR258      0.0560
    183  CG        12.6140   -4.4160   27.2810 C.ar  258  TYR258     -0.0198
    184  CD1       11.8930   -5.2180   28.1650 C.ar  258  TYR258     -0.0009
    185  CD2       12.0860   -4.1960   26.0090 C.ar  258  TYR258     -0.0009
    186  CE1       10.6820   -5.7910   27.7850 C.ar  258  TYR258      0.0417
    187  CE2       10.8830   -4.7630   25.6260 C.ar  258  TYR258      0.0417
    188  CZ        10.1920   -5.5560   26.5050 C.ar  258  TYR258      0.1957
    189  OH         9.0230   -6.1410   26.0710 O.3   258  TYR258     -0.2866
@<TRIPOS>BOND
     1    26    25    2
     2    25    24    1
     3   105   104   ar
     4    24    27    1
     5    24    23    1
     6    27    28    1
     7   104   106   ar
     8   104   103    1
     9   103   102    1
    10    14    13    2
    11    28    30   ar
    12    28    29   ar
    13    33    30   ar
    14    33    35   ar
    15    11    12    1
    16   101   100    2
    17    30    32   ar
    18    13    12    1
    19     4     3    2
    20   100    99    1
    21    35    36   ar
    22    29    31   ar
    23   102    99    1
    24    12    15    1
    25    15    16    1
    26   110   109    2
    27     3     2    1
    28    32    31   ar
    29    32    34   ar
    30    99    98    1
    31    36    34   ar
    32    18    16   ar
    33    18    20   ar
    34    16    17   ar
    35   109   108    1
    36   111   108    1
    37   111   112    1
    38   107   108    1
    39    65    64    2
    40     2     1    1
    41     2     5    1
    42    98    94   am
    43     8    10   ar
    44     8     6   ar
    45    64    63    1
    46    20    21   ar
    47    95    94    2
    48    94    93    1
    49    10     9   ar
    50    17    19   ar
    51     5     6    1
    52     6     7   ar
    53    62    63    1
    54    97    96    1
    55    97   162    1
    56    63    66    1
    57    96    93    1
    58    21    19   ar
    59    21    22    1
    60     9     7   ar
    61    93    92    1
    62    92    89   am
    63    66    67    1
    64    67    68    1
    65   162   161    1
    66   116   115    2
    67   118   117    1
    68   117   119    1
    69   117   114    1
    70    89    88    1
    71    89    90    2
    72    88    91    1
    73    88    87    1
    74    68    69   ar
    75    68    70   ar
    76   123   122    2
    77   161   158    1
    78   115   114    1
    79   115   120   am
    80    61    59    1
    81    82    81    2
    82   113   114    1
    83    60    59    1
    84   122   121    1
    85   122   126   am
    86    87    81   am
    87   121   120    1
    88   121   124    1
    89    81    80    1
    90    59    58    1
    91   158   157    1
    92   158   159    1
    93   157   155   am
    94   155   156    2
    95   155   154    1
    96   160   159    2
    97   154   153    1
    98   126   127    1
    99   125   124    1
   100   127   130    1
   101   127   128    1
   102    58    55    1
   103   130   131    1
   104   153   146   am
   105    79    80    1
   106    80    83    1
   107   143   142    2
   108   140   128   am
   109   140   141    1
   110    55    54    1
   111    55    56    1
   112   128   129    2
   113    83    84    1
   114   187   185   ar
   115   187   188   ar
   116    84    86   ar
   117    84    85   ar
   118   142   141    1
   119   142   144   am
   120   185   183   ar
   121   189   188    1
   122    54    48   am
   123   131   132   ar
   124   131   133   ar
   125   146   145    1
   126   146   147    2
   127    56    57    2
   128    37    38    1
   129   170   169    2
   130   188   186   ar
   131   132   134   ar
   132   145   144    1
   133   145   148    1
   134   183   182    1
   135   183   184   ar
   136    48    49    2
   137    48    47    1
   138   179   182    1
   139   179   180    1
   140   179   178    1
   141   133   136   ar
   142   133   135   ar
   143    38    39    1
   144    38    41    1
   145    40    39    2
   146    39    46   am
   147   169   178   am
   148   169   168    1
   149   136   138   ar
   150   186   184   ar
   151    46    47    1
   152   180   181    2
   153   148   149    1
   154   134   135   ar
   155    47    50    1
   156   164   165    1
   157   164   163    1
   158   167   168    1
   159   167   165   am
   160   149   150    1
   161   135   137   ar
   162   168   171    1
   163    41    42    1
   164   165   166    2
   165   138   139   ar
   166   171   172    1
   167    52    51    2
   168    50    51    1
   169   150   151   ar
   170   150   152   ar
   171   137   139   ar
   172    42    43    1
   173    51    53   am
   174    78    76    1
   175   172   173   ar
   176   172   174   ar
   177   173   175   ar
   178    76    75    1
   179    77    75    1
   180    44    43   ar
   181    43    45   ar
   182    75    72    1
   183   174   176   ar
   184   175   177   ar
   185   176   177   ar
   186    72    71    1
   187    72    73    1
   188    73    74    2
