@<TRIPOS>MOLECULE
tmp/1ta9A00.pdb
 89 86 0 0 0
SMALL
GASTEIGER

@<TRIPOS>ATOM
      1  N         99.5150   31.8130  111.9410 N.3    72  GLU72      -0.1231
      2  CA       100.1600   33.0450  111.5060 C.3    72  GLU72       0.1699
      3  C        100.6600   32.9130  110.0740 C.2    72  GLU72       0.2592
      4  O        101.5990   32.1640  109.7980 O.2    72  GLU72      -0.2718
      5  CB       101.3200   33.3830  112.4350 C.3    72  GLU72       0.0402
      6  CG       102.0770   34.6480  112.0880 C.3    72  GLU72       0.1161
      7  CD       101.3620   35.9140  112.5120 C.2    72  GLU72       0.3649
      8  OE1      100.2340   35.8280  113.0410 O.co2  72  GLU72      -0.2457
      9  OE2      101.9310   37.0100  112.3180 O.co2  72  GLU72      -0.2457
     10  N        100.0290   33.6510  109.1670 N.am   73  ALA73      -0.1966
     11  CA       100.4070   33.6210  107.7610 C.3    73  ALA73       0.1728
     12  C        101.6260   34.4980  107.5000 C.2    73  ALA73       0.2617
     13  O        101.5360   35.5130  106.8120 O.2    73  ALA73      -0.2715
     14  CB        99.2360   34.0790  106.8990 C.3    73  ALA73       0.0334
     15  N        102.7650   34.1040  108.0610 N.am   74  SER74      -0.1936
     16  CA       104.0080   34.8430  107.8770 C.3    74  SER74       0.2055
     17  C        104.8750   34.0770  106.8920 C.2    74  SER74       0.2642
     18  O        104.7660   32.8550  106.7850 O.2    74  SER74      -0.2714
     19  CB       104.7460   34.9860  109.2070 C.3    74  SER74       0.2130
     20  OG       105.0640   33.7160  109.7500 O.3    74  SER74      -0.2179
     21  N        105.7390   34.7930  106.1810 N.am   75  LEU75      -0.1977
     22  CA       106.6100   34.1660  105.1990 C.3    75  LEU75       0.1596
     23  C        107.4550   33.0480  105.8050 C.2    75  LEU75       0.2287
     24  O        107.6780   32.0190  105.1670 O.2    75  LEU75      -0.2864
     25  CB       107.5120   35.2200  104.5480 C.3    75  LEU75       0.0297
     26  CG       106.7750   36.3830  103.8700 C.3    75  LEU75       0.0022
     27  CD1      107.7820   37.2980  103.1830 C.3    75  LEU75       0.0001
     28  CD2      105.7750   35.8440  102.8560 C.3    75  LEU75       0.0001
     29  N        105.1670   30.0780  106.3780 N.3    78  LEU78      -0.1245
     30  CA       104.7290   29.5270  105.1000 C.3    78  LEU78       0.1561
     31  C        105.8270   28.6810  104.4700 C.2    78  LEU78       0.2260
     32  O        105.5590   27.6290  103.8850 O.2    78  LEU78      -0.2867
     33  CB       104.3380   30.6580  104.1470 C.3    78  LEU78       0.0270
     34  CG       103.0980   31.4640  104.5390 C.3    78  LEU78       0.0019
     35  CD1      102.9740   32.7030  103.6600 C.3    78  LEU78       0.0001
     36  CD2      101.8690   30.5860  104.4040 C.3    78  LEU78       0.0001
     37  N         94.6740   32.1550  102.4990 N.3   102  ASP102     -0.1239
     38  CA        95.7610   32.9120  101.8930 C.3   102  ASP102      0.1674
     39  C         97.0680   32.1300  101.9540 C.2   102  ASP102      0.2266
     40  O         97.9050   32.2440  101.0580 O.2   102  ASP102     -0.2867
     41  CB        95.9330   34.2700  102.5800 C.3   102  ASP102      0.1410
     42  CG        94.8960   35.2820  102.1320 C.2   102  ASP102      0.3668
     43  OD1       94.6090   35.3390  100.9190 O.co2 102  ASP102     -0.2456
     44  OD2       94.3790   36.0310  102.9830 O.co2 102  ASP102     -0.2456
     45  N         99.3240   30.9790   98.7200 N.3   106  TYR106     -0.1241
     46  CA       100.7450   31.3150   98.6820 C.3   106  TYR106      0.1605
     47  C        101.6120   30.0890   98.4140 C.2   106  TYR106      0.2264
     48  O        102.4900   30.1150   97.5490 O.2   106  TYR106     -0.2867
     49  CB       101.1760   31.9490  100.0030 C.3   106  TYR106      0.0534
     50  CG       102.6100   32.4190   99.9950 C.ar  106  TYR106     -0.0201
     51  CD1      102.9440   33.6850   99.5170 C.ar  106  TYR106     -0.0009
     52  CD2      103.6370   31.5850  100.4350 C.ar  106  TYR106     -0.0009
     53  CE1      104.2690   34.1140   99.4800 C.ar  106  TYR106      0.0417
     54  CE2      104.9680   32.0030  100.3990 C.ar  106  TYR106      0.0417
     55  CZ       105.2740   33.2670   99.9220 C.ar  106  TYR106      0.1957
     56  OH       106.5810   33.6910   99.8940 O.3   106  TYR106     -0.2866
     57  N         95.6920   38.7930   97.7560 N.3   132  SER132     -0.1202
     58  CA        95.8750   38.5450   99.1760 C.3   132  SER132      0.2020
     59  C         96.2960   39.8410   99.8410 C.2   132  SER132      0.2619
     60  O         97.2580   40.4820   99.4180 O.2   132  SER132     -0.2717
     61  CB        96.9430   37.4730   99.4020 C.3   132  SER132      0.2103
     62  OG        96.4630   36.1960   99.0190 O.3   132  SER132     -0.2182
     63  N         95.5600   40.2320  100.8730 N.am  133  VAL133     -0.1965
     64  CA        95.8670   41.4550  101.5950 C.3   133  VAL133      0.1727
     65  C         97.2320   41.3140  102.2560 C.2   133  VAL133      0.2616
     66  O         97.5250   40.2970  102.8860 O.2   133  VAL133     -0.2715
     67  CB        94.7940   41.7260  102.6490 C.3   133  VAL133      0.0290
     68  CG1       95.0830   42.9980  103.4390 C.3   133  VAL133      0.0023
     69  CG2       93.4470   41.8970  101.9420 C.3   133  VAL133      0.0023
     70  N         98.0680   42.3350  102.0910 N.am  134  ILE134     -0.1963
     71  CA        99.4010   42.3460  102.6780 C.3   134  ILE134      0.1727
     72  C         99.4180   43.3660  103.8140 C.2   134  ILE134      0.2616
     73  O         99.1940   44.5570  103.5910 O.2   134  ILE134     -0.2715
     74  CB       100.4680   42.7420  101.6360 C.3   134  ILE134      0.0290
     75  CG1      100.4110   41.7870  100.4410 C.3   134  ILE134      0.0022
     76  CG2      101.8520   42.7200  102.2730 C.3   134  ILE134      0.0023
     77  CD1      100.6680   40.3380  100.7990 C.3   134  ILE134      0.0001
     78  N         99.6740   42.8920  105.0300 N.am  135  TYR135     -0.1974
     79  CA        99.7120   43.7620  106.2000 C.3   135  TYR135      0.1639
     80  C        101.0030   43.5610  106.9900 C.2   135  TYR135      0.2290
     81  O        101.5220   44.4960  107.6030 O.2   135  TYR135     -0.2864
     82  CB        98.5040   43.4890  107.0880 C.3   135  TYR135      0.0560
     83  CG        98.3290   42.0570  107.5260 C.ar  135  TYR135     -0.0198
     84  CD1       98.9760   41.5830  108.6680 C.ar  135  TYR135     -0.0009
     85  CD2       97.5110   41.1740  106.8280 C.ar  135  TYR135     -0.0009
     86  CE1       98.8270   40.2720  109.0870 C.ar  135  TYR135      0.0417
     87  CE2       97.3490   39.8640  107.2380 C.ar  135  TYR135      0.0417
     88  CZ        98.0070   39.4260  108.3680 C.ar  135  TYR135      0.1957
     89  OH        97.8690   38.1170  108.7800 O.3   135  TYR135     -0.2866
@<TRIPOS>BOND
     1    48    47    2
     2    57    58    1
     3    47    46    1
     4    46    45    1
     5    46    49    1
     6    62    61    1
     7    58    61    1
     8    58    59    1
     9    60    59    2
    10    53    51   ar
    11    53    55   ar
    12    51    50   ar
    13    59    63   am
    14    56    55    1
    15    55    54   ar
    16    50    49    1
    17    50    52   ar
    18    54    52   ar
    19    75    77    1
    20    75    74    1
    21    63    64    1
    22    43    42   ar
    23    40    39    2
    24    64    65    1
    25    64    67    1
    26    74    76    1
    27    74    71    1
    28    38    39    1
    29    38    37    1
    30    38    41    1
    31    69    67    1
    32    70    65   am
    33    70    71    1
    34    42    41    1
    35    42    44   ar
    36    65    66    2
    37    67    68    1
    38    71    72    1
    39    28    26    1
    40    27    26    1
    41    73    72    2
    42    35    34    1
    43    72    78   am
    44    26    25    1
    45    32    31    2
    46    33    34    1
    47    33    30    1
    48    36    34    1
    49    31    30    1
    50    25    22    1
    51    78    79    1
    52    30    29    1
    53    24    23    2
    54    22    23    1
    55    22    21    1
    56    21    17   am
    57    79    80    1
    58    79    82    1
    59    18    17    2
    60    13    12    2
    61    85    87   ar
    62    85    83   ar
    63    17    16    1
    64    14    11    1
    65    80    81    2
    66    82    83    1
    67    87    88   ar
    68    12    11    1
    69    12    15   am
    70    83    84   ar
    71    11    10    1
    72    16    15    1
    73    16    19    1
    74    88    89    1
    75    88    86   ar
    76    84    86   ar
    77    10     3   am
    78    19    20    1
    79     4     3    2
    80     3     2    1
    81     2     1    1
    82     2     5    1
    83     6     5    1
    84     6     7    1
    85     9     7   ar
    86     7     8   ar
