@<TRIPOS>MOLECULE
tmp/1taeA00.pdb
 248 239 0 0 0
SMALL
GASTEIGER

@<TRIPOS>ATOM
      1  N          5.6080   65.7540   27.9790 N.3    22  TYR22      -0.1227
      2  CA         5.0590   64.4910   28.4440 C.3    22  TYR22       0.1736
      3  C          3.7280   64.1260   27.8220 C.2    22  TYR22       0.2596
      4  O          3.4530   62.9490   27.6370 O.2    22  TYR22      -0.2718
      5  CB         4.8900   64.4800   29.9650 C.3    22  TYR22       0.0548
      6  CG         6.1640   64.6800   30.7440 C.ar   22  TYR22      -0.0200
      7  CD1        7.3620   64.1270   30.3090 C.ar   22  TYR22      -0.0009
      8  CD2        6.1680   65.4250   31.9250 C.ar   22  TYR22      -0.0009
      9  CE1        8.5260   64.3140   31.0150 C.ar   22  TYR22       0.0417
     10  CE2        7.3330   65.6140   32.6440 C.ar   22  TYR22       0.0417
     11  CZ         8.5080   65.0590   32.1790 C.ar   22  TYR22       0.1957
     12  OH         9.6790   65.2720   32.8620 O.3    22  TYR22      -0.2866
     13  N          2.8860   65.1150   27.5280 N.am   23  SER23      -0.1952
     14  CA         1.5850   64.8230   26.9230 C.3    23  SER23       0.1924
     15  C          1.7890   64.2750   25.5370 C.2    23  SER23       0.2314
     16  O          1.1330   63.3220   25.1260 O.2    23  SER23      -0.2863
     17  CB         0.7160   66.0730   26.8300 C.3    23  SER23       0.2116
     18  OG        -0.0430   66.2420   28.0070 O.3    23  SER23      -0.2180
     19  N          2.7120   60.7450   25.6410 N.3    26  TYR26      -0.1227
     20  CA         1.6230   59.9120   26.1390 C.3    26  TYR26       0.1736
     21  C          0.4340   59.7640   25.1930 C.2    26  TYR26       0.2595
     22  O         -0.2190   58.7190   25.1540 O.2    26  TYR26      -0.2718
     23  CB         1.1520   60.4620   27.4790 C.3    26  TYR26       0.0548
     24  CG         0.0910   59.6430   28.1790 C.ar   26  TYR26      -0.0200
     25  CD1       -1.2670   59.9270   28.0150 C.ar   26  TYR26      -0.0009
     26  CD2        0.4500   58.6110   29.0410 C.ar   26  TYR26      -0.0009
     27  CE1       -2.2410   59.2030   28.7060 C.ar   26  TYR26       0.0417
     28  CE2       -0.5130   57.8830   29.7350 C.ar   26  TYR26       0.0417
     29  CZ        -1.8510   58.1860   29.5670 C.ar   26  TYR26       0.1957
     30  OH        -2.7850   57.4880   30.2920 O.3    26  TYR26      -0.2866
     31  N          0.1450   60.8050   24.4310 N.am   27  TYR27      -0.1976
     32  CA        -0.9740   60.7420   23.5130 C.3    27  TYR27       0.1639
     33  C         -0.5130   60.5300   22.0800 C.2    27  TYR27       0.2290
     34  O         -0.9990   59.6400   21.3870 O.2    27  TYR27      -0.2864
     35  CB        -1.7860   62.0290   23.6000 C.3    27  TYR27       0.0560
     36  CG        -2.4850   62.2480   24.9210 C.ar   27  TYR27      -0.0198
     37  CD1       -3.5940   61.4790   25.2800 C.ar   27  TYR27      -0.0009
     38  CD2       -2.0690   63.2540   25.7920 C.ar   27  TYR27      -0.0009
     39  CE1       -4.2770   61.7130   26.4760 C.ar   27  TYR27       0.0417
     40  CE2       -2.7420   63.4960   26.9830 C.ar   27  TYR27       0.0417
     41  CZ        -3.8460   62.7250   27.3190 C.ar   27  TYR27       0.1957
     42  OH        -4.5330   62.9740   28.4800 O.3    27  TYR27      -0.2866
     43  N          4.9170   57.0480   26.9800 N.3    32  PRO32      -0.2102
     44  CA         5.2960   58.0130   28.0230 C.3    32  PRO32       0.1504
     45  C          6.6510   57.7250   28.6800 C.2    32  PRO32       0.2576
     46  O          7.0070   56.5710   28.8900 O.2    32  PRO32      -0.2718
     47  CB         4.1380   57.9120   29.0140 C.3    32  PRO32       0.0282
     48  CG         3.8140   56.4570   28.9620 C.3    32  PRO32       0.0208
     49  CD         3.8630   56.1390   27.4700 C.3    32  PRO32       0.0893
     50  N          7.3990   58.7750   29.0070 N.am   33  SER33      -0.1938
     51  CA         8.7050   58.6030   29.6330 C.3    33  SER33       0.2055
     52  C          8.6530   58.7410   31.1520 C.2    33  SER33       0.2643
     53  O          9.6400   58.4820   31.8340 O.2    33  SER33      -0.2714
     54  CB         9.7020   59.6190   29.0850 C.3    33  SER33       0.2130
     55  OG         9.4820   60.8980   29.6470 O.3    33  SER33      -0.2179
     56  N          7.5090   59.1560   31.6820 N.am   34  VAL34      -0.1963
     57  CA         7.3660   59.3100   33.1220 C.3    34  VAL34       0.1727
     58  C          6.1110   58.6220   33.6190 C.2    34  VAL34       0.2616
     59  O          5.1690   58.4150   32.8670 O.2    34  VAL34      -0.2715
     60  CB         7.3130   60.8020   33.5380 C.3    34  VAL34       0.0290
     61  CG1        8.6790   61.4560   33.3150 C.3    34  VAL34       0.0023
     62  CG2        6.2410   61.5250   32.7420 C.3    34  VAL34       0.0023
     63  N          6.1140   58.2610   34.8950 N.am   35  GLU35      -0.1963
     64  CA         4.9760   57.6010   35.5080 C.3    35  GLU35       0.1733
     65  C          3.8230   58.6020   35.5160 C.2    35  GLU35       0.2616
     66  O          4.0490   59.8150   35.5660 O.2    35  GLU35      -0.2715
     67  CB         5.3220   57.2010   36.9390 C.3    35  GLU35       0.0429
     68  CG         4.7860   55.8520   37.3490 C.3    35  GLU35       0.1163
     69  CD         5.6740   54.7210   36.8970 C.2    35  GLU35       0.3649
     70  OE1        5.2950   53.5500   37.1120 O.co2  35  GLU35      -0.2457
     71  OE2        6.7530   55.0050   36.3370 O.co2  35  GLU35      -0.2457
     72  N          2.5950   58.0970   35.4760 N.am   36  ASP36      -0.1971
     73  CA         1.4150   58.9550   35.4660 C.3    36  ASP36       0.1709
     74  C          1.3030   59.8750   36.6690 C.2    36  ASP36       0.2293
     75  O          0.7730   60.9800   36.5520 O.2    36  ASP36      -0.2864
     76  CB         0.1400   58.1180   35.3690 C.3    36  ASP36       0.1436
     77  CG        -0.1010   57.5810   33.9780 C.2    36  ASP36       0.3671
     78  OD1       -1.0590   56.8080   33.8020 O.co2  36  ASP36      -0.2456
     79  OD2        0.6630   57.9310   33.0560 O.co2  36  ASP36      -0.2456
     80  N          3.6710   62.8670   36.3600 N.3    39  TYR39      -0.1227
     81  CA         3.0310   63.8570   35.5220 C.3    39  TYR39       0.1736
     82  C          1.9900   64.5980   36.3560 C.2    39  TYR39       0.2595
     83  O          2.0070   65.8270   36.4480 O.2    39  TYR39      -0.2718
     84  CB         2.3790   63.1790   34.3080 C.3    39  TYR39       0.0548
     85  CG         1.5870   64.1300   33.4370 C.ar   39  TYR39      -0.0200
     86  CD1        0.2540   64.4190   33.7260 C.ar   39  TYR39      -0.0009
     87  CD2        2.1970   64.8160   32.3840 C.ar   39  TYR39      -0.0009
     88  CE1       -0.4480   65.3700   33.0040 C.ar   39  TYR39       0.0417
     89  CE2        1.4990   65.7760   31.6470 C.ar   39  TYR39       0.0417
     90  CZ         0.1760   66.0550   31.9670 C.ar   39  TYR39       0.1957
     91  OH        -0.5130   67.0440   31.2900 O.3    39  TYR39      -0.2866
     92  N          1.1000   63.8470   36.9880 N.am   40  ASP40      -0.1974
     93  CA         0.0540   64.4510   37.7980 C.3    40  ASP40       0.1709
     94  C          0.5400   65.4120   38.8660 C.2    40  ASP40       0.2293
     95  O         -0.1260   66.4100   39.1360 O.2    40  ASP40      -0.2864
     96  CB        -0.8090   63.3770   38.4650 C.3    40  ASP40       0.1436
     97  CG        -1.5300   62.5040   37.4640 C.2    40  ASP40       0.3671
     98  OD1       -1.8730   63.0090   36.3750 O.co2  40  ASP40      -0.2456
     99  OD2       -1.7670   61.3130   37.7740 O.co2  40  ASP40      -0.2456
    100  N         -6.4210   65.8530   25.7700 N.3    67  GLY67      -0.1225
    101  CA        -5.7610   64.8490   24.9510 C.3    67  GLY67       0.1811
    102  C         -4.5450   65.3160   24.1700 C.2    67  GLY67       0.2280
    103  O         -3.6340   65.9090   24.7380 O.2    67  GLY67      -0.2866
    104  N        -14.2680   66.0930   26.0700 N.3    84  TYR84      -0.1227
    105  CA       -13.4080   66.7510   27.0390 C.3    84  TYR84       0.1736
    106  C        -12.6400   65.7580   27.8900 C.2    84  TYR84       0.2596
    107  O        -12.5380   64.5770   27.5740 O.2    84  TYR84      -0.2718
    108  CB       -14.2240   67.6470   27.9750 C.3    84  TYR84       0.0548
    109  CG       -15.0190   68.7300   27.2970 C.ar   84  TYR84      -0.0200
    110  CD1      -16.2700   68.4640   26.7470 C.ar   84  TYR84      -0.0009
    111  CD2      -14.5350   70.0410   27.2420 C.ar   84  TYR84      -0.0009
    112  CE1      -17.0260   69.4730   26.1690 C.ar   84  TYR84       0.0417
    113  CE2      -15.2790   71.0590   26.6610 C.ar   84  TYR84       0.0417
    114  CZ       -16.5280   70.7740   26.1290 C.ar   84  TYR84       0.1957
    115  OH       -17.2880   71.7960   25.5770 O.3    84  TYR84      -0.2866
    116  N        -12.1050   66.2840   28.9800 N.am   85  SER85      -0.1938
    117  CA       -11.3550   65.5270   29.9610 C.3    85  SER85       0.2055
    118  C        -12.2300   65.6400   31.2120 C.2    85  SER85       0.2642
    119  O        -13.4450   65.8700   31.1080 O.2    85  SER85      -0.2714
    120  CB        -9.9890   66.1930   30.1790 C.3    85  SER85       0.2130
    121  OG        -9.1980   65.5110   31.1350 O.3    85  SER85      -0.2179
    122  N        -11.6310   65.4800   32.3860 N.am   86  LEU86      -0.1977
    123  CA       -12.3780   65.5970   33.6360 C.3    86  LEU86       0.1596
    124  C        -11.4690   66.2060   34.6860 C.2    86  LEU86       0.2287
    125  O        -10.2430   66.1450   34.5600 O.2    86  LEU86      -0.2864
    126  CB       -12.8710   64.2200   34.1130 C.3    86  LEU86       0.0297
    127  CG       -13.9870   63.5110   33.3250 C.3    86  LEU86       0.0022
    128  CD1      -14.1530   62.0750   33.8320 C.3    86  LEU86       0.0001
    129  CD2      -15.3030   64.2920   33.4630 C.3    86  LEU86       0.0001
    130  N         -9.8310   66.1760   38.3010 N.3    88  ASP88      -0.1239
    131  CA        -9.5000   65.0990   39.2260 C.3    88  ASP88       0.1674
    132  C         -9.5240   65.3930   40.7280 C.2    88  ASP88       0.2266
    133  O         -9.3020   66.5220   41.1730 O.2    88  ASP88      -0.2867
    134  CB        -8.1350   64.5260   38.8450 C.3    88  ASP88       0.1410
    135  CG        -8.1410   63.9040   37.4740 C.2    88  ASP88       0.3668
    136  OD1       -7.0550   63.6930   36.8970 O.co2  88  ASP88      -0.2456
    137  OD2       -9.2470   63.6170   36.9740 O.co2  88  ASP88      -0.2456
    138  N        -20.0850   56.0190   38.7780 N.3   115  GLU115     -0.1231
    139  CA       -19.6620   54.9630   37.8750 C.3   115  GLU115      0.1699
    140  C        -18.1930   54.6760   38.1120 C.2   115  GLU115      0.2592
    141  O        -17.5020   55.4560   38.7580 O.2   115  GLU115     -0.2718
    142  CB       -19.8810   55.4310   36.4400 C.3   115  GLU115      0.0402
    143  CG       -21.2720   56.0100   36.2100 C.3   115  GLU115      0.1161
    144  CD       -21.4420   56.6460   34.8380 C.2   115  GLU115      0.3649
    145  OE1      -22.3970   57.4400   34.6750 O.co2 115  GLU115     -0.2457
    146  OE2      -20.6380   56.3510   33.9260 O.co2 115  GLU115     -0.2457
    147  N        -17.7060   53.5590   37.6010 N.am  116  LEU116     -0.1966
    148  CA       -16.2980   53.2360   37.7710 C.3   116  LEU116      0.1728
    149  C        -15.5540   53.7960   36.5830 C.2   116  LEU116      0.2616
    150  O        -15.9300   53.5490   35.4450 O.2   116  LEU116     -0.2715
    151  CB       -16.0830   51.7300   37.8050 C.3   116  LEU116      0.0311
    152  CG       -16.9530   50.9580   38.7790 C.3   116  LEU116      0.0022
    153  CD1      -16.6360   49.4800   38.6350 C.3   116  LEU116      0.0001
    154  CD2      -16.7140   51.4470   40.1870 C.3   116  LEU116      0.0001
    155  N        -14.5040   54.5560   36.8370 N.am  117  LYS117     -0.1963
    156  CA       -13.7290   55.1020   35.7420 C.3   117  LYS117      0.1728
    157  C        -12.9640   53.9310   35.1170 C.2   117  LYS117      0.2616
    158  O        -11.9180   53.5310   35.6210 O.2   117  LYS117     -0.2715
    159  CB       -12.7590   56.1580   36.2670 C.3   117  LYS117      0.0311
    160  CG       -12.0500   56.9480   35.1920 C.3   117  LYS117      0.0038
    161  CD       -11.1040   57.9570   35.8320 C.3   117  LYS117      0.0206
    162  CE       -10.5320   58.9110   34.8230 C.3   117  LYS117      0.1093
    163  NZ        -9.6800   58.2400   33.8260 N.3   117  LYS117     -0.1314
    164  N        -13.5070   53.3790   34.0330 N.am  118  ILE118     -0.1977
    165  CA       -12.8970   52.2500   33.3280 C.3   118  ILE118      0.1596
    166  C        -11.5710   52.6600   32.6970 C.2   118  ILE118      0.2287
    167  O        -11.5360   53.4650   31.7730 O.2   118  ILE118     -0.2864
    168  CB       -13.8250   51.7310   32.2120 C.3   118  ILE118      0.0276
    169  CG1      -15.2140   51.4140   32.7760 C.3   118  ILE118      0.0022
    170  CG2      -13.2070   50.4920   31.5750 C.3   118  ILE118      0.0022
    171  CD1      -15.1990   50.4060   33.9170 C.3   118  ILE118      0.0001
    172  N        -10.4490   56.3340   25.3300 N.3   122  ALA122     -0.1245
    173  CA       -11.7190   57.0310   25.1140 C.3   122  ALA122      0.1562
    174  C        -12.1800   56.8580   23.6640 C.2   122  ALA122      0.2260
    175  O        -11.3860   57.0320   22.7340 O.2   122  ALA122     -0.2867
    176  CB       -11.5710   58.5120   25.4430 C.3   122  ALA122      0.0290
    177  N        -10.6280   60.1340   21.0760 N.3   138  ARG138     -0.1245
    178  CA       -10.8850   61.4780   21.5700 C.3   138  ARG138      0.1563
    179  C        -10.0310   62.5260   20.8660 C.2   138  ARG138      0.2260
    180  O        -10.4980   63.6270   20.5960 O.2   138  ARG138     -0.2867
    181  CB       -10.6360   61.5640   23.0760 C.3   138  ARG138      0.0307
    182  CG       -11.0250   62.9160   23.6510 C.3   138  ARG138      0.0489
    183  CD       -10.7860   63.0090   25.1390 C.3   138  ARG138      0.2205
    184  NE        -9.3710   62.9050   25.4660 N.pl3 138  ARG138     -0.0865
    185  CZ        -8.8780   63.0380   26.6930 C.cat 138  ARG138      0.5346
    186  NH1       -7.5750   62.9270   26.9010 N.pl3 138  ARG138      0.1354
    187  NH2       -9.6910   63.2840   27.7080 N.pl3 138  ARG138      0.1354
    188  N        -15.7000   53.8870   26.9040 N.3   172  GLU172     -0.1245
    189  CA       -14.3240   53.4280   26.9340 C.3   172  GLU172      0.1567
    190  C        -14.1370   52.0720   26.2700 C.2   172  GLU172      0.2260
    191  O        -15.0420   51.2360   26.2720 O.2   172  GLU172     -0.2867
    192  CB       -13.8670   53.3220   28.3910 C.3   172  GLU172      0.0388
    193  CG       -12.3700   53.4050   28.6100 C.3   172  GLU172      0.1160
    194  CD       -11.8780   54.8370   28.7610 C.2   172  GLU172      0.3649
    195  OE1      -10.6940   55.0210   29.1040 O.co2 172  GLU172     -0.2457
    196  OE2      -12.6700   55.7790   28.5400 O.co2 172  GLU172     -0.2457
    197  N        -21.0440   55.2030   28.3920 N.3   224  TYR224     -0.1227
    198  CA       -21.6190   55.9170   29.5290 C.3   224  TYR224      0.1736
    199  C        -22.0510   57.3520   29.2640 C.2   224  TYR224      0.2596
    200  O        -22.5010   58.0420   30.1820 O.2   224  TYR224     -0.2718
    201  CB       -20.6310   55.9080   30.6940 C.3   224  TYR224      0.0548
    202  CG       -19.1970   56.1110   30.2620 C.ar  224  TYR224     -0.0200
    203  CD1      -18.2700   55.0640   30.3390 C.ar  224  TYR224     -0.0009
    204  CD2      -18.7720   57.3330   29.7290 C.ar  224  TYR224     -0.0009
    205  CE1      -16.9610   55.2330   29.8960 C.ar  224  TYR224      0.0417
    206  CE2      -17.4670   57.5050   29.2760 C.ar  224  TYR224      0.0417
    207  CZ       -16.5750   56.4520   29.3670 C.ar  224  TYR224      0.1957
    208  OH       -15.2900   56.6230   28.9400 O.3   224  TYR224     -0.2866
    209  N        -21.9110   57.8080   28.0240 N.am  225  THR225     -0.1953
    210  CA       -22.3110   59.1640   27.6900 C.3   225  THR225      0.1897
    211  C        -23.0960   59.2620   26.3920 C.2   225  THR225      0.2313
    212  O        -22.7550   58.6440   25.3870 O.2   225  THR225     -0.2863
    213  CB       -21.1020   60.0960   27.5640 C.3   225  THR225      0.1794
    214  OG1      -20.3620   60.0970   28.7900 O.3   225  THR225     -0.2208
    215  CG2      -21.5640   61.5060   27.2600 C.3   225  THR225      0.0378
    216  N         -9.2680   53.1920   37.0040 N.3   283  ASP283     -0.1239
    217  CA        -8.3070   54.1210   37.5830 C.3   283  ASP283      0.1674
    218  C         -8.9700   55.1410   38.5010 C.2   283  ASP283      0.2266
    219  O         -8.4450   56.2310   38.7200 O.2   283  ASP283     -0.2867
    220  CB        -7.4800   54.8230   36.4940 C.3   283  ASP283      0.1410
    221  CG        -8.2750   55.8320   35.7060 C.2   283  ASP283      0.3668
    222  OD1       -9.3540   55.4610   35.1930 O.co2 283  ASP283     -0.2456
    223  OD2       -7.8120   56.9930   35.5910 O.co2 283  ASP283     -0.2456
    224  N        -15.9450   58.0180   38.7410 N.3   286  VAL286     -0.1245
    225  CA       -16.4370   59.2350   38.0990 C.3   286  VAL286      0.1561
    226  C        -17.7510   59.5980   38.7640 C.2   286  VAL286      0.2260
    227  O        -18.7220   58.8380   38.6980 O.2   286  VAL286     -0.2867
    228  CB       -16.6570   59.0450   36.5820 C.3   286  VAL286      0.0252
    229  CG1      -17.2210   60.3410   35.9680 C.3   286  VAL286      0.0019
    230  CG2      -15.3410   58.6600   35.9190 C.3   286  VAL286      0.0019
    231  N        -20.8680   61.8960   38.8210 N.3   288  LYS288     -0.1245
    232  CA       -21.6260   62.7620   37.9310 C.3   288  LYS288      0.1561
    233  C        -22.9200   63.3100   38.5050 C.2   288  LYS288      0.2260
    234  O        -23.6100   62.6310   39.2580 O.2   288  LYS288     -0.2867
    235  CB       -21.9590   61.9970   36.6480 C.3   288  LYS288      0.0271
    236  CG       -20.7510   61.5230   35.8630 C.3   288  LYS288      0.0035
    237  CD       -21.1630   60.6160   34.7050 C.3   288  LYS288      0.0206
    238  CE       -19.9460   60.1480   33.9110 C.3   288  LYS288      0.1093
    239  NZ       -20.2510   59.0290   32.9920 N.3   288  LYS288     -0.1314
    240  N         -9.2430   59.8450   41.5600 N.3   312  LYS312     -0.1245
    241  CA        -8.2060   58.9930   41.0000 C.3   312  LYS312      0.1561
    242  C         -7.6390   57.9220   41.9270 C.2   312  LYS312      0.2260
    243  O         -7.4460   58.1480   43.1210 O.2   312  LYS312     -0.2867
    244  CB        -7.0670   59.8580   40.4580 C.3   312  LYS312      0.0271
    245  CG        -7.4050   60.5890   39.1720 C.3   312  LYS312      0.0035
    246  CD        -8.0030   59.6210   38.1670 C.3   312  LYS312      0.0206
    247  CE        -7.7120   60.0260   36.7340 C.3   312  LYS312      0.1093
    248  NZ        -6.2930   59.7710   36.3490 N.3   312  LYS312     -0.1314
@<TRIPOS>BOND
     1   180   179    2
     2   179   178    1
     3   177   178    1
     4    34    33    2
     5   178   181    1
     6    33    32    1
     7   175   174    2
     8   181   182    1
     9    32    35    1
    10    32    31    1
    11    35    36    1
    12   182   183    1
    13   174   173    1
    14   102   103    2
    15   102   101    1
    16    31    21   am
    17    36    37   ar
    18    36    38   ar
    19   101   100    1
    20   173   172    1
    21   173   176    1
    22    16    15    2
    23   183   184    1
    24    22    21    2
    25    21    20    1
    26    37    39   ar
    27   212   211    2
    28   184   185    2
    29    15    14    1
    30   115   114    1
    31    19    20    1
    32    38    40   ar
    33   104   105    1
    34   114   112   ar
    35   114   113   ar
    36    20    23    1
    37   112   110   ar
    38   190   191    2
    39   190   189    1
    40   211   210    1
    41    39    41   ar
    42   113   111   ar
    43   185   186    1
    44   185   187    1
    45   110   109   ar
    46    17    14    1
    47    17    18    1
    48   188   189    1
    49    14    13    1
    50   189   192    1
    51    43    49    1
    52    43    44    1
    53    40    41   ar
    54   105   106    1
    55   105   108    1
    56   111   109   ar
    57   215   213    1
    58   109   108    1
    59    41    42    1
    60    49    48    1
    61    23    24    1
    62    13     3   am
    63   213   210    1
    64   213   214    1
    65   107   106    2
    66     4     3    2
    67   210   209    1
    68     3     2    1
    69   106   116   am
    70     1     2    1
    71    25    24   ar
    72    25    27   ar
    73    44    45    1
    74    44    47    1
    75   209   199   am
    76    24    26   ar
    77   192   193    1
    78   197   198    1
    79     2     5    1
    80   196   194   ar
    81   193   194    1
    82    45    46    2
    83    45    50   am
    84    27    29   ar
    85   194   195   ar
    86   208   207    1
    87    48    47    1
    88   116   117    1
    89    50    51    1
    90    26    28   ar
    91    54    51    1
    92    54    55    1
    93   199   198    1
    94   199   200    2
    95   206   207   ar
    96   206   204   ar
    97   207   205   ar
    98   198   201    1
    99    29    28   ar
   100    29    30    1
   101    51    52    1
   102   204   202   ar
   103   205   203   ar
   104   117   120    1
   105   117   118    1
   106     5     6    1
   107   120   121    1
   108   202   203   ar
   109   202   201    1
   110     7     6   ar
   111     7     9   ar
   112     6     8   ar
   113     9    11   ar
   114   119   118    2
   115    52    56   am
   116    52    53    2
   117   118   122   am
   118    91    90    1
   119   170   168    1
   120    89    90   ar
   121    89    87   ar
   122    56    57    1
   123   167   166    2
   124     8    10   ar
   125    90    88   ar
   126    11    10   ar
   127    11    12    1
   128   168   169    1
   129   168   165    1
   130    87    85   ar
   131   122   123    1
   132   166   165    1
   133    62    60    1
   134   169   171    1
   135    59    58    2
   136   239   238    1
   137    88    86   ar
   138    79    77   ar
   139    57    60    1
   140    57    58    1
   141    61    60    1
   142   127   129    1
   143   127   128    1
   144   127   126    1
   145   165   164    1
   146    85    86   ar
   147    85    84    1
   148    58    63   am
   149   123   126    1
   150   123   124    1
   151    78    77   ar
   152   163   162    1
   153   238   237    1
   154   146   144   ar
   155    77    76    1
   156   164   157   am
   157    84    81    1
   158   125   124    2
   159   145   144   ar
   160   237   236    1
   161   162   161    1
   162   144   143    1
   163    63    64    1
   164   157   158    2
   165   157   156    1
   166   160   161    1
   167   160   159    1
   168   222   221   ar
   169    76    73    1
   170   150   149    2
   171    73    72    1
   172    73    74    1
   173    72    65   am
   174    64    65    1
   175    64    67    1
   176    65    66    2
   177    81    82    1
   178    81    80    1
   179   223   221   ar
   180   221   220    1
   181   156   159    1
   182   156   155    1
   183   236   235    1
   184   230   228    1
   185   229   228    1
   186   143   142    1
   187    71    69   ar
   188   248   247    1
   189    82    83    2
   190    82    92   am
   191    98    97   ar
   192   142   139    1
   193   220   217    1
   194    75    74    2
   195   228   225    1
   196   149   155   am
   197   149   148    1
   198   235   232    1
   199   247   246    1
   200    69    70   ar
   201    69    68    1
   202   136   135   ar
   203    67    68    1
   204   137   135   ar
   205    92    93    1
   206   216   217    1
   207    97    99   ar
   208    97    96    1
   209   135   134    1
   210   217   218    1
   211   147   148    1
   212   147   140   am
   213   148   151    1
   214    93    96    1
   215    93    94    1
   216   151   152    1
   217   139   140    1
   218   139   138    1
   219   232   233    1
   220   232   231    1
   221   225   224    1
   222   225   226    1
   223   140   141    2
   224   246   245    1
   225   130   131    1
   226   218   219    2
   227   233   234    2
   228   153   152    1
   229   227   226    2
   230   152   154    1
   231   134   131    1
   232    94    95    2
   233   245   244    1
   234   131   132    1
   235   244   241    1
   236   132   133    2
   237   241   240    1
   238   241   242    1
   239   242   243    2
