@<TRIPOS>MOLECULE
tmp/1tasA00.pdb
 182 172 0 0 0
SMALL
GASTEIGER

@<TRIPOS>ATOM
      1  N         15.8810    9.5600  112.2080 N.3    15  ILE15      -0.1231
      2  CA        15.8800   10.6900  113.0970 C.3    15  ILE15       0.1692
      3  C         15.0210   11.7300  112.4960 C.2    15  ILE15       0.2591
      4  O         13.9560   12.0650  112.9810 O.2    15  ILE15      -0.2718
      5  CB        17.2050   11.3800  113.3640 C.3    15  ILE15       0.0266
      6  CG1       18.1590   10.5160  114.1830 C.3    15  ILE15       0.0019
      7  CG2       16.9540   12.7170  114.1000 C.3    15  ILE15       0.0020
      8  CD1       19.5800   11.0900  114.1280 C.3    15  ILE15       0.0001
      9  N         15.4930   12.2650  111.4140 N.am   16  LEU16      -0.1980
     10  CA        14.7330   13.3300  110.7910 C.3    16  LEU16       0.1596
     11  C         13.2250   13.0020  110.4220 C.2    16  LEU16       0.2287
     12  O         12.3210   13.8460  110.4540 O.2    16  LEU16      -0.2864
     13  CB        15.6530   13.7880  109.6810 C.3    16  LEU16       0.0297
     14  CG        16.2790   15.1250  109.9080 C.3    16  LEU16       0.0022
     15  CD1       17.0980   15.2210  111.1810 C.3    16  LEU16       0.0001
     16  CD2       17.1350   15.4770  108.6910 C.3    16  LEU16       0.0001
     17  N         14.7160   14.8680  117.1980 N.3    35  VAL35      -0.1231
     18  CA        15.9760   15.4350  116.8320 C.3    35  VAL35       0.1692
     19  C         16.3750   16.4170  117.8750 C.2    35  VAL35       0.2592
     20  O         15.5070   17.0820  118.4580 O.2    35  VAL35      -0.2718
     21  CB        15.8230   16.2430  115.5660 C.3    35  VAL35       0.0266
     22  CG1       14.6680   17.1800  115.7990 C.3    35  VAL35       0.0020
     23  CG2       17.0790   17.0790  115.3440 C.3    35  VAL35       0.0020
     24  N         17.7000   16.5280  118.0270 N.am   36  GLY36      -0.1957
     25  CA        18.4120   17.4020  118.9580 C.3    36  GLY36       0.1869
     26  C         18.3690   18.8700  118.5960 C.2    36  GLY36       0.2309
     27  O         19.2330   19.4390  117.9760 O.2    36  GLY36      -0.2863
     28  N         27.7290   22.4970  107.3850 N.3   104  SER104     -0.1202
     29  CA        27.3790   22.0160  108.7280 C.3   104  SER104      0.2020
     30  C         28.2420   20.7850  109.0580 C.2   104  SER104      0.2619
     31  O         29.1640   20.4200  108.3420 O.2   104  SER104     -0.2717
     32  CB        25.8890   21.6830  108.9520 C.3   104  SER104      0.2103
     33  OG        25.3310   22.3040  110.0570 O.3   104  SER104     -0.2182
     34  N         27.9500   20.1230  110.1580 N.am  105  GLY105     -0.1942
     35  CA        28.7540   18.9880  110.5340 C.3   105  GLY105      0.2014
     36  C         28.5930   17.8850  109.5760 C.2   105  GLY105      0.2639
     37  O         29.5090   17.1280  109.3700 O.2   105  GLY105     -0.2714
     38  N         27.3940   17.7740  108.9880 N.am  106  THR106     -0.1950
     39  CA        27.1580   16.6740  108.0750 C.3   106  THR106      0.1897
     40  C         27.9900   16.8610  106.8410 C.2   106  THR106      0.2313
     41  O         28.7290   15.9890  106.4720 O.2   106  THR106     -0.2863
     42  CB        25.6810   16.3770  107.8370 C.3   106  THR106      0.1794
     43  OG1       25.0180   16.2360  109.0750 O.3   106  THR106     -0.2208
     44  CG2       25.5090   15.0930  107.0470 C.3   106  THR106      0.0378
     45  N         31.7010   16.4410  107.6150 N.3   109  LEU109     -0.1245
     46  CA        31.9090   15.0370  107.7290 C.3   109  LEU109      0.1561
     47  C         32.0000   14.3270  106.3570 C.2   109  LEU109      0.2260
     48  O         32.8060   13.4320  106.1110 O.2   109  LEU109     -0.2867
     49  CB        30.6740   14.5720  108.5350 C.3   109  LEU109      0.0270
     50  CG        30.8500   13.8560  109.8860 C.3   109  LEU109      0.0019
     51  CD1       31.9020   14.5100  110.7610 C.3   109  LEU109      0.0001
     52  CD2       29.5570   13.9400  110.6550 C.3   109  LEU109      0.0001
     53  N         25.9310    8.0660  116.4100 N.3   133  TRP133     -0.1241
     54  CA        24.8120    8.7290  115.6850 C.3   133  TRP133      0.1605
     55  C         24.5200    7.9910  114.3960 C.2   133  TRP133      0.2264
     56  O         25.4300    7.6490  113.6600 O.2   133  TRP133     -0.2867
     57  CB        25.2490   10.1130  115.2670 C.3   133  TRP133      0.0550
     58  CG        24.3080   10.9720  114.5380 C.ar  133  TRP133      0.0003
     59  CD1       23.0130   11.2460  114.8350 C.ar  133  TRP133      0.0946
     60  CD2       24.6510   11.8100  113.4370 C.ar  133  TRP133      0.0152
     61  NE1       22.5070   12.1880  113.9620 N.ar  133  TRP133     -0.2442
     62  CE2       23.5170   12.5450  113.0920 C.ar  133  TRP133      0.0810
     63  CE3       25.8000   11.9680  112.7190 C.ar  133  TRP133      0.0012
     64  CZ2       23.5240   13.4070  112.0340 C.ar  133  TRP133      0.0191
     65  CZ3       25.7950   12.8130  111.6630 C.ar  133  TRP133      0.0001
     66  CH2       24.6760   13.5290  111.3340 C.ar  133  TRP133      0.0015
     67  N         23.5030    8.7620  111.2770 N.3   135  ASN135     -0.1240
     68  CA        24.0540    9.2070  110.0050 C.3   135  ASN135      0.1653
     69  C         25.4860    8.9010  109.7290 C.2   135  ASN135      0.2266
     70  O         25.9630    9.0850  108.5970 O.2   135  ASN135     -0.2867
     71  CB        23.8870   10.7160  109.7550 C.3   135  ASN135      0.1155
     72  CG        23.3990   10.9850  108.3330 C.2   135  ASN135      0.2627
     73  OD1       22.9970   10.0600  107.6080 O.2   135  ASN135     -0.2716
     74  ND2       23.4630   12.2220  107.8880 N.am  135  ASN135     -0.0877
     75  N         33.8340   10.7660  119.0520 N.3   181  HIS181     -0.1241
     76  CA        33.0360   11.9550  119.3100 C.3   181  HIS181      0.1621
     77  C         33.7950   12.8140  120.3330 C.2   181  HIS181      0.2264
     78  O         34.1130   12.3890  121.4200 O.2   181  HIS181     -0.2867
     79  CB        31.6110   11.6600  119.8950 C.3   181  HIS181      0.0745
     80  CG        30.7190   10.8040  119.0790 C.ar  181  HIS181      0.0817
     81  ND1       29.3760   11.1090  118.9120 N.ar  181  HIS181     -0.2268
     82  CD2       30.9800    9.6720  118.3750 C.ar  181  HIS181      0.1154
     83  CE1       28.8630   10.1710  118.1290 C.ar  181  HIS181      0.1986
     84  NE2       29.8010    9.2780  117.7890 N.ar  181  HIS181     -0.2212
     85  N         26.7690   11.2960  121.1170 N.3   186  ASN186     -0.1240
     86  CA        25.4210   11.0530  120.6200 C.3   186  ASN186      0.1653
     87  C         25.3020    9.5770  120.3100 C.2   186  ASN186      0.2266
     88  O         26.1630    9.0850  119.6440 O.2   186  ASN186     -0.2867
     89  CB        25.2450   11.8360  119.3180 C.3   186  ASN186      0.1155
     90  CG        23.8470   11.8270  118.7310 C.2   186  ASN186      0.2627
     91  OD1       23.0700   10.9010  118.9380 O.2   186  ASN186     -0.2716
     92  ND2       23.5200   12.8650  118.0150 N.am  186  ASN186     -0.0877
     93  N         34.4980   13.8590  115.5940 N.3   214  ASP214     -0.1239
     94  CA        33.2020   14.4360  115.3250 C.3   214  ASP214      0.1674
     95  C         32.8870   15.4570  116.4030 C.2   214  ASP214      0.2266
     96  O         32.5920   15.1350  117.5580 O.2   214  ASP214     -0.2867
     97  CB        32.0740   13.4420  115.3020 C.3   214  ASP214      0.1410
     98  CG        30.8620   14.1000  114.6950 C.2   214  ASP214      0.3668
     99  OD1       30.7320   15.3140  114.5540 O.co2 214  ASP214     -0.2456
    100  OD2       29.9370   13.2370  114.3570 O.co2 214  ASP214     -0.2456
    101  N         30.3660   18.0120  116.9040 N.3   216  ALA216     -0.1231
    102  CA        29.1340   18.7280  116.8250 C.3   216  ALA216      0.1694
    103  C         28.6080   19.4320  118.1440 C.2   216  ALA216      0.2592
    104  O         27.7510   20.3020  118.0270 O.2   216  ALA216     -0.2718
    105  CB        28.1590   17.6880  116.4710 C.3   216  ALA216      0.0304
    106  N         29.0530   19.0880  119.4230 N.am  217  TYR217     -0.1976
    107  CA        28.4920   19.7720  120.6310 C.3   217  TYR217      0.1639
    108  C         29.3490   20.6670  121.5840 C.2   217  TYR217      0.2290
    109  O         29.0260   20.7820  122.7470 O.2   217  TYR217     -0.2864
    110  CB        27.6980   18.8030  121.4910 C.3   217  TYR217      0.0560
    111  CG        26.6480   18.1380  120.7030 C.ar  217  TYR217     -0.0198
    112  CD1       25.4150   18.7630  120.5990 C.ar  217  TYR217     -0.0009
    113  CD2       26.8490   16.9320  120.0360 C.ar  217  TYR217     -0.0009
    114  CE1       24.3620   18.2260  119.8520 C.ar  217  TYR217      0.0417
    115  CE2       25.8120   16.3750  119.2840 C.ar  217  TYR217      0.0417
    116  CZ        24.5770   17.0230  119.1800 C.ar  217  TYR217      0.1957
    117  OH        23.5940   16.4210  118.4140 O.3   217  TYR217     -0.2866
    118  N         30.3880   21.5510  113.9590 N.3   247  SER247     -0.1217
    119  CA        29.0820   22.1440  113.7250 C.3   247  SER247      0.1889
    120  C         28.7860   23.3140  114.6830 C.2   247  SER247      0.2288
    121  O         29.0990   23.2840  115.8520 O.2   247  SER247     -0.2866
    122  CB        27.9950   21.0990  113.9260 C.3   247  SER247      0.2089
    123  OG        26.7950   21.5150  113.2350 O.3   247  SER247     -0.2183
    124  N         25.5790   24.4170  114.6060 N.3   249  ALA249     -0.1231
    125  CA        24.1590   24.3270  114.4890 C.3   249  ALA249      0.1694
    126  C         23.5030   24.3460  115.8040 C.2   249  ALA249      0.2591
    127  O         22.4530   24.9590  116.0110 O.2   249  ALA249     -0.2718
    128  CB        23.7450   23.0580  113.7450 C.3   249  ALA249      0.0304
    129  N         24.0920   23.6400  116.7010 N.am  250  LYS250     -0.1980
    130  CA        23.4910   23.5640  117.9910 C.3   250  LYS250      0.1596
    131  C         23.9900   24.7070  118.8300 C.2   250  LYS250      0.2287
    132  O         23.2440   25.6010  119.1960 O.2   250  LYS250     -0.2864
    133  CB        23.6780   22.1920  118.6530 C.3   250  LYS250      0.0298
    134  CG        22.9830   21.0360  117.9150 C.3   250  LYS250      0.0038
    135  CD        23.8340   20.4160  116.8060 C.3   250  LYS250      0.0206
    136  CE        23.5310   18.9600  116.5300 C.3   250  LYS250      0.1093
    137  NZ        24.6540   18.3830  115.7400 N.3   250  LYS250     -0.1314
    138  N         21.0900   25.9580  112.9540 N.3   255  TYR255     -0.1241
    139  CA        20.6410   24.7390  112.3790 C.3   255  TYR255      0.1605
    140  C         20.5170   24.7090  110.8850 C.2   255  TYR255      0.2264
    141  O         21.2320   24.0510  110.1890 O.2   255  TYR255     -0.2867
    142  CB        19.3000   24.3190  112.9990 C.3   255  TYR255      0.0534
    143  CG        19.3360   24.0290  114.4810 C.ar  255  TYR255     -0.0201
    144  CD1       19.1160   25.0570  115.4020 C.ar  255  TYR255     -0.0009
    145  CD2       19.5820   22.7500  114.9810 C.ar  255  TYR255     -0.0009
    146  CE1       19.1060   24.8420  116.7810 C.ar  255  TYR255      0.0417
    147  CE2       19.5790   22.5120  116.3590 C.ar  255  TYR255      0.0417
    148  CZ        19.3330   23.5550  117.2590 C.ar  255  TYR255      0.1957
    149  OH        19.3400   23.3430  118.6060 O.3   255  TYR255     -0.2866
    150  N         23.2120   26.0240  108.0440 N.3   258  ARG258     -0.1245
    151  CA        24.3060   25.1820  107.5590 C.3   258  ARG258      0.1563
    152  C         25.7220   25.7590  107.7570 C.2   258  ARG258      0.2260
    153  O         26.3700   26.1480  106.7900 O.2   258  ARG258     -0.2867
    154  CB        23.9980   24.8860  106.0960 C.3   258  ARG258      0.0307
    155  CG        22.5460   24.4910  105.9900 C.3   258  ARG258      0.0489
    156  CD        22.1470   23.6310  107.1580 C.3   258  ARG258      0.2205
    157  NE        22.4730   22.2530  106.9440 N.pl3 258  ARG258     -0.0865
    158  CZ        22.6790   21.3500  107.8910 C.cat 258  ARG258      0.5346
    159  NH1       22.5870   21.7140  109.1580 N.pl3 258  ARG258      0.1354
    160  NH2       22.9770   20.0840  107.5750 N.pl3 258  ARG258      0.1354
    161  N         20.7350   14.8400  124.9580 N.3   352  PHE352     -0.1241
    162  CA        19.7610   13.7940  125.1500 C.3   352  PHE352      0.1605
    163  C         19.8910   12.9270  126.3830 C.2   352  PHE352      0.2264
    164  O         20.8180   12.9880  127.2220 O.2   352  PHE352     -0.2867
    165  CB        20.0100   12.7540  124.0390 C.3   352  PHE352      0.0534
    166  CG        20.2260   13.3880  122.7150 C.ar  352  PHE352     -0.0203
    167  CD1       21.5010   13.7990  122.3680 C.ar  352  PHE352     -0.0042
    168  CD2       19.1800   13.5760  121.8050 C.ar  352  PHE352     -0.0042
    169  CE1       21.7510   14.3960  121.1290 C.ar  352  PHE352     -0.0003
    170  CE2       19.4150   14.1560  120.5670 C.ar  352  PHE352     -0.0003
    171  CZ        20.7050   14.5890  120.2290 C.ar  352  PHE352     -0.0000
    172  N         16.0000    7.1170  122.5740 N.3   378  ARG378     -0.1245
    173  CA        16.6100    8.4310  122.7420 C.3   378  ARG378      0.1563
    174  C         15.6490    9.5710  122.7810 C.2   378  ARG378      0.2260
    175  O         14.9270    9.7770  121.8100 O.2   378  ARG378     -0.2867
    176  CB        17.5960    8.7260  121.6250 C.3   378  ARG378      0.0307
    177  CG        18.4510    9.9690  121.8270 C.3   378  ARG378      0.0489
    178  CD        19.3340   10.3370  120.6130 C.3   378  ARG378      0.2205
    179  NE        18.6440   11.2570  119.6740 N.pl3 378  ARG378     -0.0865
    180  CZ        19.2070   11.7910  118.5960 C.cat 378  ARG378      0.5346
    181  NH1       20.4920   11.5820  118.3280 N.pl3 378  ARG378      0.1354
    182  NH2       18.5380   12.5670  117.7700 N.pl3 378  ARG378      0.1354
@<TRIPOS>BOND
     1   155   154    1
     2   155   156    1
     3   154   151    1
     4    48    47    2
     5    47    46    1
     6    41    40    2
     7   153   152    2
     8    40    39    1
     9   157   156    1
    10   157   158    2
    11    44    42    1
    12    28    29    1
    13   151   152    1
    14   151   150    1
    15   160   158    1
    16    73    72    2
    17    45    46    1
    18    46    49    1
    19    42    39    1
    20    42    43    1
    21    74    72   am
    22   158   159    1
    23    39    38    1
    24    72    71    1
    25    31    30    2
    26    49    50    1
    27    70    69    2
    28    16    14    1
    29    29    32    1
    30    29    30    1
    31    32    33    1
    32    38    36   am
    33    30    34   am
    34    37    36    2
    35    36    35    1
    36    13    14    1
    37    13    10    1
    38    69    68    1
    39    71    68    1
    40    50    52    1
    41    50    51    1
    42    14    15    1
    43    68    67    1
    44    34    35    1
    45   141   140    2
    46    11    12    2
    47    11    10    1
    48    10     9    1
    49   140   139    1
    50    66    65   ar
    51    66    64   ar
    52     9     3   am
    53    65    63   ar
    54    64    62   ar
    55     1     2    1
    56   139   138    1
    57   139   142    1
    58     3     4    2
    59     3     2    1
    60    63    60   ar
    61   142   143    1
    62    62    60   ar
    63    62    61   ar
    64     2     5    1
    65   123   122    1
    66     5     7    1
    67     5     6    1
    68    60    58   ar
    69    56    55    2
    70   119   122    1
    71   119   118    1
    72   119   120    1
    73   128   125    1
    74    61    59   ar
    75     8     6    1
    76   100    98   ar
    77    55    54    1
    78   143   145   ar
    79   143   144   ar
    80   125   124    1
    81   125   126    1
    82    58    59   ar
    83    58    57    1
    84    99    98   ar
    85   120   121    2
    86    98    97    1
    87   145   147   ar
    88    57    54    1
    89    97    94    1
    90    94    93    1
    91    94    95    1
    92    23    21    1
    93   144   146   ar
    94    21    22    1
    95    21    18    1
    96    54    53    1
    97   137   136    1
    98   126   127    2
    99   126   129   am
   100   147   148   ar
   101    95    96    2
   102   105   102    1
   103   136   135    1
   104   129   130    1
   105   146   148   ar
   106   135   134    1
   107   102   101    1
   108   102   103    1
   109    18    17    1
   110    18    19    1
   111   148   149    1
   112   182   180    1
   113    84    83   ar
   114    84    82   ar
   115    19    24   am
   116    19    20    2
   117   134   133    1
   118    27    26    2
   119   130   133    1
   120   130   131    1
   121    92    90   am
   122    24    25    1
   123   104   103    2
   124    83    81   ar
   125   103   106   am
   126   181   180    1
   127    82    80   ar
   128   117   116    1
   129    26    25    1
   130   180   179    2
   131    90    91    2
   132    90    89    1
   133   131   132    2
   134    81    80   ar
   135    75    76    1
   136    80    79    1
   137   116   115   ar
   138   116   114   ar
   139   115   113   ar
   140    76    79    1
   141    76    77    1
   142    89    86    1
   143   106   107    1
   144    88    87    2
   145   179   178    1
   146   114   112   ar
   147   113   111   ar
   148   171   170   ar
   149   171   169   ar
   150    87    86    1
   151    77    78    2
   152   170   168   ar
   153   112   111   ar
   154   178   177    1
   155    86    85    1
   156   107   110    1
   157   107   108    1
   158   111   110    1
   159   169   167   ar
   160   108   109    2
   161   176   177    1
   162   176   173    1
   163   168   166   ar
   164   175   174    2
   165   167   166   ar
   166   172   173    1
   167   166   165    1
   168   173   174    1
   169   165   162    1
   170   161   162    1
   171   162   163    1
   172   163   164    2
