@<TRIPOS>MOLECULE
tmp/1tb6C05.pdb
 120 113 0 0 0
SMALL
GASTEIGER

@<TRIPOS>ATOM
      1  N         46.5360   16.4160  -11.5780 N.3    43  SER43      -0.1217
      2  CA        46.7200   17.7160  -10.9420 C.3    43  SER43       0.1889
      3  C         46.7910   18.8300  -11.9830 C.2    43  SER43       0.2288
      4  O         46.3350   19.9500  -11.7390 O.2    43  SER43      -0.2866
      5  CB        47.9850   17.7260  -10.0860 C.3    43  SER43       0.2089
      6  OG        47.7630   17.0600   -8.8550 O.3    43  SER43      -0.2183
      7  N         43.1360   19.1780  -13.0350 N.3    46  ALA46      -0.1231
      8  CA        42.3870   19.8790  -11.9960 C.3    46  ALA46       0.1694
      9  C         42.5980   21.3940  -12.0510 C.2    46  ALA46       0.2592
     10  O         41.6510   22.1660  -11.8790 O.2    46  ALA46      -0.2718
     11  CB        42.7750   19.3510  -10.6280 C.3    46  ALA46       0.0304
     12  N         43.8300   21.8310  -12.2920 N.am   47  THR47      -0.1953
     13  CA        44.0820   23.2650  -12.3580 C.3    47  THR47       0.1897
     14  C         43.2660   23.9410  -13.4620 C.2    47  THR47       0.2313
     15  O         42.5330   24.8960  -13.1960 O.2    47  THR47      -0.2863
     16  CB        45.5770   23.5800  -12.6040 C.3    47  THR47       0.1794
     17  OG1       46.3460   23.1110  -11.4980 O.3    47  THR47      -0.2208
     18  CG2       45.7930   25.0830  -12.7510 C.3    47  THR47       0.0378
     19  N         39.3280   23.4940  -12.7850 N.3    50  TYR50      -0.1227
     20  CA        38.8030   24.3130  -11.7130 C.3    50  TYR50       0.1736
     21  C         38.6690   25.7600  -12.1730 C.2    50  TYR50       0.2595
     22  O         37.7120   26.4480  -11.8220 O.2    50  TYR50      -0.2718
     23  CB        39.7110   24.2330  -10.4840 C.3    50  TYR50       0.0548
     24  CG        39.1950   25.0310   -9.3120 C.ar   50  TYR50      -0.0200
     25  CD1       39.4510   26.4030   -9.2060 C.ar   50  TYR50      -0.0009
     26  CD2       38.4040   24.4270   -8.3300 C.ar   50  TYR50      -0.0009
     27  CE1       38.9330   27.1480   -8.1600 C.ar   50  TYR50       0.0417
     28  CE2       37.8790   25.1620   -7.2860 C.ar   50  TYR50       0.0417
     29  CZ        38.1460   26.5210   -7.2050 C.ar   50  TYR50       0.1957
     30  OH        37.6130   27.2470   -6.1650 O.3    50  TYR50      -0.2866
     31  N         39.6200   26.2180  -12.9740 N.am   51  GLN51      -0.1979
     32  CA        39.5740   27.5890  -13.4440 C.3    51  GLN51       0.1601
     33  C         38.3220   27.8830  -14.2590 C.2    51  GLN51       0.2287
     34  O         37.6320   28.8590  -13.9980 O.2    51  GLN51      -0.2864
     35  CB        40.8140   27.9180  -14.2650 C.3    51  GLN51       0.0394
     36  CG        41.1200   29.3910  -14.2110 C.3    51  GLN51       0.0908
     37  CD        41.3660   29.8580  -12.7830 C.2    51  GLN51       0.2608
     38  OE1       41.0190   30.9850  -12.4140 O.2    51  GLN51      -0.2717
     39  NE2       41.9770   28.9910  -11.9740 N.am   51  GLN51      -0.0878
     40  N         43.3930   34.5380   -5.5850 N.3   282  VAL282     -0.1231
     41  CA        44.1980   33.3720   -5.2670 C.3   282  VAL282      0.1692
     42  C         43.8110   32.2280   -6.2140 C.2   282  VAL282      0.2591
     43  O         44.6640   31.4610   -6.6410 O.2   282  VAL282     -0.2718
     44  CB        43.9920   32.9350   -3.7940 C.3   282  VAL282      0.0266
     45  CG1       44.6000   31.5650   -3.5570 C.3   282  VAL282      0.0020
     46  CG2       44.6430   33.9440   -2.8620 C.3   282  VAL282      0.0020
     47  N         42.5280   32.1220   -6.5530 N.am  283  GLU283     -0.1979
     48  CA        42.0770   31.0660   -7.4570 C.3   283  GLU283      0.1602
     49  C         42.7590   31.1670   -8.8230 C.2   283  GLU283      0.2287
     50  O         43.0150   30.1500   -9.4720 O.2   283  GLU283     -0.2864
     51  CB        40.5540   31.1190   -7.6550 C.3   283  GLU283      0.0415
     52  CG        39.7280   30.5390   -6.5190 C.3   283  GLU283      0.1163
     53  CD        38.2250   30.7030   -6.7360 C.2   283  GLU283      0.3649
     54  OE1       37.7900   31.8210   -7.0840 O.co2 283  GLU283     -0.2457
     55  OE2       37.4720   29.7230   -6.5490 O.co2 283  GLU283     -0.2457
     56  N         47.0960   30.7070   -8.4480 N.3   286  LEU286     -0.1231
     57  CA        47.6520   29.4800   -7.8830 C.3   286  LEU286      0.1693
     58  C         47.7870   28.3260   -8.8820 C.2   286  LEU286      0.2593
     59  O         46.8780   28.0660   -9.6670 O.2   286  LEU286     -0.2718
     60  CB        46.7940   29.0460   -6.6900 C.3   286  LEU286      0.0284
     61  CG        47.2940   27.9290   -5.7740 C.3   286  LEU286      0.0019
     62  CD1       48.6600   28.3000   -5.1880 C.3   286  LEU286      0.0001
     63  CD2       46.2760   27.7110   -4.6640 C.3   286  LEU286      0.0001
     64  N         48.9270   27.6370   -8.8290 N.am  287  THR287     -0.1940
     65  CA        49.2290   26.5100   -9.7190 C.3   287  THR287      0.2013
     66  C         49.6990   25.3130   -8.8970 C.2   287  THR287      0.2484
     67  O         50.0170   25.4460   -7.7180 O.2   287  THR287     -0.2729
     68  CB        50.3730   26.8530  -10.6920 C.3   287  THR287      0.1807
     69  OG1       51.6280   26.7290  -10.0080 O.3   287  THR287     -0.2208
     70  CG2       50.2330   28.2730  -11.2050 C.3   287  THR287      0.0379
     71  N         49.7680   24.1250   -9.5170 N.am  288  PRO288     -0.2726
     72  CA        50.2160   22.9530   -8.7590 C.3   288  PRO288      0.1402
     73  C         51.6100   23.1640   -8.1940 C.2   288  PRO288      0.2269
     74  O         51.9110   22.7170   -7.0880 O.2   288  PRO288     -0.2865
     75  CB        50.1830   21.8330   -9.7970 C.3   288  PRO288      0.0296
     76  CG        49.0900   22.2690  -10.7300 C.3   288  PRO288      0.0237
     77  CD        49.3640   23.7480  -10.8830 C.3   288  PRO288      0.0939
     78  N         51.4530   25.3560   -5.0580 N.3   291  LEU291     -0.1245
     79  CA        50.7940   24.6490   -3.9750 C.3   291  LEU291      0.1561
     80  C         51.7450   23.6340   -3.3600 C.2   291  LEU291      0.2260
     81  O         51.8720   23.5520   -2.1440 O.2   291  LEU291     -0.2867
     82  CB        49.5340   23.9330   -4.4640 C.3   291  LEU291      0.0270
     83  CG        48.8450   23.1410   -3.3430 C.3   291  LEU291      0.0019
     84  CD1       48.2610   24.1110   -2.3250 C.3   291  LEU291      0.0001
     85  CD2       47.7640   22.2540   -3.9090 C.3   291  LEU291      0.0001
     86  N         39.7790   28.2210    0.4190 N.3   390  LEU390     -0.1245
     87  CA        39.8130   27.0770   -0.4970 C.3   390  LEU390      0.1561
     88  C         40.0030   25.7890    0.3000 C.2   390  LEU390      0.2260
     89  O         40.5520   25.8070    1.4040 O.2   390  LEU390     -0.2867
     90  CB        40.9560   27.2080   -1.4970 C.3   390  LEU390      0.0270
     91  CG        40.8850   28.3920   -2.4500 C.3   390  LEU390      0.0019
     92  CD1       42.0220   28.2880   -3.4560 C.3   390  LEU390      0.0001
     93  CD2       39.5280   28.4060   -3.1680 C.3   390  LEU390      0.0001
     94  N         41.1410   21.5360   -0.1000 N.3   392  PHE392     -0.1241
     95  CA        41.7370   20.4790   -0.8940 C.3   392  PHE392      0.1605
     96  C         41.7520   19.2610    0.0060 C.2   392  PHE392      0.2264
     97  O         41.8880   19.3770    1.2230 O.2   392  PHE392     -0.2867
     98  CB        43.1780   20.8060   -1.2810 C.3   392  PHE392      0.0534
     99  CG        43.3150   21.9690   -2.2080 C.ar  392  PHE392     -0.0203
    100  CD1       42.9270   21.8670   -3.5270 C.ar  392  PHE392     -0.0042
    101  CD2       43.8210   23.1810   -1.7520 C.ar  392  PHE392     -0.0042
    102  CE1       43.0330   22.9640   -4.3950 C.ar  392  PHE392     -0.0003
    103  CE2       43.9310   24.2800   -2.6060 C.ar  392  PHE392     -0.0003
    104  CZ        43.5340   24.1730   -3.9350 C.ar  392  PHE392     -0.0000
    105  N         45.4560   15.0620   -5.6340 N.3   401  ILE401     -0.1245
    106  CA        44.3240   15.9020   -5.2880 C.3   401  ILE401      0.1561
    107  C         43.1190   15.0080   -5.4860 C.2   401  ILE401      0.2260
    108  O         42.8230   14.6050   -6.6000 O.2   401  ILE401     -0.2867
    109  CB        44.2090   17.1150   -6.2280 C.3   401  ILE401      0.0252
    110  CG1       45.3860   18.0600   -5.9960 C.3   401  ILE401      0.0019
    111  CG2       42.8950   17.8390   -5.9900 C.3   401  ILE401      0.0019
    112  CD1       45.4480   19.1820   -7.0020 C.3   401  ILE401      0.0001
    113  N         38.6230   19.0760   -4.4000 N.3   404  MET404     -0.1245
    114  CA        39.0200   20.4650   -4.3520 C.3   404  MET404      0.1570
    115  C         37.7620   21.2910   -4.3340 C.2   404  MET404      0.2261
    116  O         36.7370   20.8890   -4.8750 O.2   404  MET404     -0.2867
    117  CB        39.8970   20.8270   -5.5440 C.3   404  MET404      0.0387
    118  CG        39.1840   21.1390   -6.8280 C.3   404  MET404      0.0595
    119  SD        40.4040   21.2020   -8.1760 S.3   404  MET404     -0.1393
    120  CE        41.6720   22.0730   -7.3880 C.3   404  MET404      0.0692
@<TRIPOS>BOND
     1    35    36    1
     2    35    32    1
     3    33    34    2
     4    33    32    1
     5    36    37    1
     6    14    15    2
     7    14    13    1
     8    32    31    1
     9     7     8    1
    10    31    21   am
    11    19    20    1
    12    37    38    2
    13    37    39   am
    14    18    16    1
    15    16    13    1
    16    16    17    1
    17    13    12    1
    18    12     9   am
    19    21    22    2
    20    21    20    1
    21     9     8    1
    22     9    10    2
    23     8    11    1
    24     3     4    2
    25     3     2    1
    26    20    23    1
    27     1     2    1
    28    70    68    1
    29     2     5    1
    30    77    76    1
    31    77    71    1
    32    76    75    1
    33    68    69    1
    34    68    65    1
    35    23    24    1
    36     5     6    1
    37    75    72    1
    38    65    66    1
    39    65    64    1
    40    59    58    2
    41    71    66   am
    42    71    72    1
    43    50    49    2
    44    24    25   ar
    45    24    26   ar
    46    25    27   ar
    47    66    67    2
    48    58    64   am
    49    58    57    1
    50    49    48    1
    51    72    73    1
    52    56    57    1
    53    26    28   ar
    54    73    74    2
    55   119   120    1
    56   119   118    1
    57    27    29   ar
    58    57    60    1
    59    51    48    1
    60    51    52    1
    61    48    47    1
    62    28    29   ar
    63    29    30    1
    64    54    53   ar
    65   112   110    1
    66   118   117    1
    67    53    55   ar
    68    53    52    1
    69    60    61    1
    70    43    42    2
    71   108   107    2
    72    47    42   am
    73   109   110    1
    74   109   111    1
    75   109   106    1
    76    42    41    1
    77    61    62    1
    78    61    63    1
    79   105   106    1
    80    40    41    1
    81   117   114    1
    82   107   106    1
    83    41    44    1
    84    78    79    1
    85   116   115    2
    86    82    79    1
    87    82    83    1
    88   113   114    1
    89   102   104   ar
    90   102   100   ar
    91   114   115    1
    92    79    80    1
    93   104   103   ar
    94    85    83    1
    95    44    45    1
    96    44    46    1
    97   100    99   ar
    98    92    91    1
    99    80    81    2
   100    83    84    1
   101    93    91    1
   102   103   101   ar
   103    91    90    1
   104    99   101   ar
   105    99    98    1
   106    90    87    1
   107    98    95    1
   108    95    94    1
   109    95    96    1
   110    87    88    1
   111    87    86    1
   112    96    97    2
   113    88    89    2
