@<TRIPOS>MOLECULE
tmp/1tb6C02.pdb
 127 124 0 0 0
SMALL
GASTEIGER

@<TRIPOS>ATOM
      1  N         44.9360   -9.2940  -20.5620 N.3    13  PRO13      -0.2102
      2  CA        44.9960   -8.4230  -21.7370 C.3    13  PRO13       0.1504
      3  C         43.7950   -7.4880  -21.8110 C.2    13  PRO13       0.2576
      4  O         42.6440   -7.9330  -21.8090 O.2    13  PRO13      -0.2718
      5  CB        45.0310   -9.4170  -22.8910 C.3    13  PRO13       0.0282
      6  CG        44.1360  -10.5140  -22.3870 C.3    13  PRO13       0.0208
      7  CD        44.6120  -10.6790  -20.9540 C.3    13  PRO13       0.0893
      8  N         44.0610   -6.1900  -21.8790 N.am   14  MET14      -0.1966
      9  CA        42.9790   -5.2280  -21.9490 C.3    14  MET14       0.1736
     10  C         43.3750   -3.9610  -22.6990 C.2    14  MET14       0.2616
     11  O         43.1230   -2.8490  -22.2400 O.2    14  MET14      -0.2715
     12  CB        42.4970   -4.8920  -20.5330 C.3    14  MET14       0.0427
     13  CG        43.5550   -4.2670  -19.6490 C.3    14  MET14       0.0599
     14  SD        43.0530   -4.2110  -17.9210 S.3    14  MET14      -0.1393
     15  CE        44.5380   -4.8760  -17.1290 C.3    14  MET14       0.0692
     16  N         43.9900   -4.1370  -23.8640 N.am   15  ASN15      -0.1959
     17  CA        44.4080   -3.0100  -24.6890 C.3    15  ASN15       0.1804
     18  C         43.2050   -2.3430  -25.3540 C.2    15  ASN15       0.2463
     19  O         42.1950   -2.9890  -25.6350 O.2    15  ASN15      -0.2730
     20  CB        45.3860   -3.4850  -25.7620 C.3    15  ASN15       0.1195
     21  CG        46.7400   -3.8420  -25.1940 C.2    15  ASN15       0.2630
     22  OD1       46.8440   -4.6150  -24.2370 O.2    15  ASN15      -0.2716
     23  ND2       47.7930   -3.2810  -25.7830 N.am   15  ASN15      -0.0877
     24  N         43.2960   -1.0300  -25.6070 N.am   16  PRO16      -0.2716
     25  CA        42.2020   -0.2940  -26.2450 C.3    16  PRO16       0.1536
     26  C         42.1080   -0.6220  -27.7380 C.2    16  PRO16       0.2598
     27  O         42.9910   -1.2770  -28.2860 O.2    16  PRO16      -0.2715
     28  CB        42.5860    1.1580  -25.9920 C.3    16  PRO16       0.0310
     29  CG        44.0810    1.1100  -26.0600 C.3    16  PRO16       0.0237
     30  CD        44.4040   -0.1230  -25.2540 C.3    16  PRO16       0.0939
     31  N         41.0400   -0.1760  -28.3920 N.am   17  MET17      -0.1964
     32  CA        40.8810   -0.4270  -29.8200 C.3    17  MET17       0.1736
     33  C         41.8250    0.4690  -30.6280 C.2    17  MET17       0.2617
     34  O         42.2380    0.1260  -31.7360 O.2    17  MET17      -0.2715
     35  CB        39.4370   -0.1770  -30.2540 C.3    17  MET17       0.0427
     36  CG        39.2200   -0.3190  -31.7510 C.3    17  MET17       0.0599
     37  SD        37.4920   -0.1520  -32.2430 S.3    17  MET17      -0.1393
     38  CE        37.0330   -1.8870  -32.3990 C.3    17  MET17       0.0692
     39  N         42.1590    1.6220  -30.0650 N.am   18  CYS18      -0.1954
     40  CA        43.0530    2.5610  -30.7160 C.3    18  CYS18       0.1843
     41  C         44.0110    3.1090  -29.6660 C.2    18  CYS18       0.2625
     42  O         43.6950    3.1160  -28.4770 O.2    18  CYS18      -0.2714
     43  CB        42.2560    3.7160  -31.3400 C.3    18  CYS18       0.0997
     44  SG        41.2520    3.2790  -32.8030 S.3    18  CYS18      -0.0797
     45  N         45.1870    3.5490  -30.1000 N.am   19  ILE19      -0.1977
     46  CA        46.1600    4.1230  -29.1820 C.3    19  ILE19       0.1596
     47  C         46.5630    5.4710  -29.7360 C.2    19  ILE19       0.2287
     48  O         46.2670    5.7850  -30.8840 O.2    19  ILE19      -0.2864
     49  CB        47.4170    3.2430  -29.0310 C.3    19  ILE19       0.0276
     50  CG1       48.1230    3.0960  -30.3770 C.3    19  ILE19       0.0022
     51  CG2       47.0320    1.8860  -28.4720 C.3    19  ILE19       0.0022
     52  CD1       49.4300    2.3340  -30.2940 C.3    19  ILE19       0.0001
     53  N         38.9640    4.4760  -23.6010 N.3    79  LEU79      -0.1245
     54  CA        39.1540    3.0510  -23.8620 C.3    79  LEU79       0.1561
     55  C         38.6160    2.6310  -25.2300 C.2    79  LEU79       0.2260
     56  O         39.1810    1.7560  -25.8780 O.2    79  LEU79      -0.2867
     57  CB        38.4690    2.2240  -22.7710 C.3    79  LEU79       0.0270
     58  CG        38.5020    0.7050  -22.9460 C.3    79  LEU79       0.0019
     59  CD1       39.9420    0.2450  -23.0000 C.3    79  LEU79       0.0001
     60  CD2       37.7860    0.0310  -21.7930 C.3    79  LEU79       0.0001
     61  N         30.0900   -3.7470  -27.0850 N.3   142  ASN142     -0.1240
     62  CA        31.2170   -4.6600  -27.2100 C.3   142  ASN142      0.1653
     63  C         31.4280   -5.4080  -25.9030 C.2   142  ASN142      0.2266
     64  O         31.7530   -4.8110  -24.8820 O.2   142  ASN142     -0.2867
     65  CB        32.4710   -3.8680  -27.5640 C.3   142  ASN142      0.1155
     66  CG        33.6800   -4.7420  -27.7420 C.2   142  ASN142      0.2627
     67  OD1       33.8530   -5.7330  -27.0340 O.2   142  ASN142     -0.2716
     68  ND2       34.5320   -4.3550  -28.6850 N.am  142  ASN142     -0.0877
     69  N         33.8270   -7.3420  -24.9850 N.3   144  THR144     -0.1203
     70  CA        35.1990   -7.3000  -24.4880 C.3   144  THR144      0.1994
     71  C         35.3770   -6.0220  -23.6680 C.2   144  THR144      0.2617
     72  O         36.0400   -6.0210  -22.6320 O.2   144  THR144     -0.2717
     73  CB        36.2150   -7.3000  -25.6390 C.3   144  THR144      0.1784
     74  OG1       36.0220   -8.4690  -26.4460 O.3   144  THR144     -0.2211
     75  CG2       37.6380   -7.2920  -25.0920 C.3   144  THR144      0.0376
     76  N         34.7760   -4.9370  -24.1540 N.am  145  TYR145     -0.1975
     77  CA        34.8210   -3.6400  -23.4860 C.3   145  TYR145      0.1639
     78  C         34.0970   -3.7730  -22.1550 C.2   145  TYR145      0.2290
     79  O         34.5120   -3.2020  -21.1560 O.2   145  TYR145     -0.2864
     80  CB        34.1240   -2.5770  -24.3440 C.3   145  TYR145      0.0560
     81  CG        33.9980   -1.2260  -23.6750 C.ar  145  TYR145     -0.0198
     82  CD1       34.9430   -0.2270  -23.8940 C.ar  145  TYR145     -0.0009
     83  CD2       32.9550   -0.9640  -22.7840 C.ar  145  TYR145     -0.0009
     84  CE1       34.8570    0.9990  -23.2380 C.ar  145  TYR145      0.0417
     85  CE2       32.8620    0.2520  -22.1210 C.ar  145  TYR145      0.0417
     86  CZ        33.8140    1.2300  -22.3490 C.ar  145  TYR145      0.1957
     87  OH        33.7280    2.4300  -21.6780 O.3   145  TYR145     -0.2866
     88  N         36.2470   -5.5890  -19.5510 N.3   148  ILE148     -0.1245
     89  CA        37.3300   -4.7400  -19.0820 C.3   148  ILE148      0.1561
     90  C         36.7740   -3.6590  -18.1600 C.2   148  ILE148      0.2260
     91  O         37.3550   -3.3450  -17.1210 O.2   148  ILE148     -0.2867
     92  CB        38.0750   -4.0940  -20.2570 C.3   148  ILE148      0.0252
     93  CG1       38.6760   -5.1940  -21.1420 C.3   148  ILE148      0.0019
     94  CG2       39.1730   -3.1710  -19.7350 C.3   148  ILE148      0.0019
     95  CD1       39.3530   -4.6810  -22.3940 C.3   148  ILE148      0.0001
     96  N         34.1260    3.5900  -31.4660 N.3   339  PRO339     -0.2102
     97  CA        33.9050    2.2490  -32.0290 C.3   339  PRO339      0.1504
     98  C         34.0400    1.1250  -31.0090 C.2   339  PRO339      0.2576
     99  O         33.2440    0.1850  -30.9850 O.2   339  PRO339     -0.2718
    100  CB        34.9870    2.1310  -33.1070 C.3   339  PRO339      0.0282
    101  CG        35.5090    3.5420  -33.2970 C.3   339  PRO339      0.0208
    102  CD        35.4040    4.1470  -31.9430 C.3   339  PRO339      0.0893
    103  N         35.0680    1.2360  -30.1750 N.am  340  GLY340     -0.1957
    104  CA        35.3400    0.2210  -29.1760 C.3   340  GLY340      0.1869
    105  C         34.2360   -0.0840  -28.1920 C.2   340  GLY340      0.2309
    106  O         34.1970   -1.1770  -27.6290 O.2   340  GLY340     -0.2863
    107  N         30.8800    0.0170  -28.9280 N.3   342  VAL342     -0.1231
    108  CA        29.8370   -0.7620  -29.5810 C.3   342  VAL342      0.1692
    109  C         30.3800   -1.9650  -30.3290 C.2   342  VAL342      0.2592
    110  O         31.5370   -1.9860  -30.7570 O.2   342  VAL342     -0.2718
    111  CB        29.0360    0.0900  -30.5900 C.3   342  VAL342      0.0266
    112  CG1       28.4490    1.3130  -29.9010 C.3   342  VAL342      0.0020
    113  CG2       29.9340    0.5000  -31.7370 C.3   342  VAL342      0.0020
    114  N         29.5180   -2.9650  -30.4790 N.am  343  ALA343     -0.1966
    115  CA        29.8470   -4.1870  -31.2010 C.3   343  ALA343      0.1728
    116  C         29.9650   -3.8090  -32.6680 C.2   343  ALA343      0.2616
    117  O         29.8530   -2.6380  -33.0280 O.2   343  ALA343     -0.2715
    118  CB        28.7360   -5.2280  -31.0180 C.3   343  ALA343      0.0334
    119  N         30.1880   -4.7970  -33.5220 N.am  344  GLU344     -0.1977
    120  CA        30.3020   -4.5020  -34.9390 C.3   344  GLU344      0.1602
    121  C         28.9200   -4.3680  -35.5730 C.2   344  GLU344      0.2287
    122  O         28.0120   -5.1490  -35.2940 O.2   344  GLU344     -0.2864
    123  CB        31.1140   -5.5850  -35.6520 C.3   344  GLU344      0.0415
    124  CG        31.5970   -5.1340  -37.0100 C.3   344  GLU344      0.1163
    125  CD        32.0480   -3.6790  -36.9950 C.2   344  GLU344      0.3649
    126  OE1       32.9570   -3.3420  -36.2030 O.co2 344  GLU344     -0.2457
    127  OE2       31.4900   -2.8700  -37.7710 O.co2 344  GLU344     -0.2457
@<TRIPOS>BOND
     1   127   125   ar
     2   124   125    1
     3   124   123    1
     4   125   126   ar
     5   123   120    1
     6   121   122    2
     7   121   120    1
     8   120   119    1
     9   119   116   am
    10   101   100    1
    11   101   102    1
    12   100    97    1
    13   117   116    2
    14    44    43    1
    15   116   115    1
    16    38    37    1
    17    37    36    1
    18    97    96    1
    19    97    98    1
    20   102    96    1
    21    36    35    1
    22   113   111    1
    23    34    33    2
    24    43    40    1
    25   115   118    1
    26   115   114    1
    27    98    99    2
    28    98   103   am
    29    48    47    2
    30   110   109    2
    31    40    39    1
    32    40    41    1
    33    33    39   am
    34    33    32    1
    35   111   112    1
    36   111   108    1
    37   114   109   am
    38    50    52    1
    39    50    49    1
    40   109   108    1
    41    35    32    1
    42   103   104    1
    43    45    41   am
    44    45    46    1
    45    32    31    1
    46    47    46    1
    47    41    42    2
    48   108   107    1
    49    46    49    1
    50   104   105    1
    51    49    51    1
    52    68    66   am
    53    31    26   am
    54    27    26    2
    55   105   106    2
    56    66    65    1
    57    66    67    2
    58    26    25    1
    59    65    62    1
    60    62    61    1
    61    62    63    1
    62    74    73    1
    63    25    28    1
    64    25    24    1
    65    29    28    1
    66    29    30    1
    67    63    64    2
    68    56    55    2
    69    23    21   am
    70    20    21    1
    71    20    17    1
    72    73    75    1
    73    73    70    1
    74    19    18    2
    75    24    18   am
    76    24    30    1
    77    18    17    1
    78    55    54    1
    79    21    22    2
    80    69    70    1
    81    17    16    1
    82    70    71    1
    83    80    81    1
    84    80    77    1
    85    76    71   am
    86    76    77    1
    87    82    81   ar
    88    82    84   ar
    89    16    10   am
    90    54    53    1
    91    54    57    1
    92    81    83   ar
    93    71    72    2
    94    77    78    1
    95    84    86   ar
    96    59    58    1
    97    58    57    1
    98    58    60    1
    99     5     6    1
   100     5     2    1
   101    83    85   ar
   102    10    11    2
   103    10     9    1
   104    95    93    1
   105     6     7    1
   106    86    85   ar
   107    86    87    1
   108    78    79    2
   109     9     8    1
   110     9    12    1
   111     8     3   am
   112     3     4    2
   113     3     2    1
   114     2     1    1
   115    93    92    1
   116     7     1    1
   117    12    13    1
   118    92    94    1
   119    92    89    1
   120    13    14    1
   121    88    89    1
   122    89    90    1
   123    90    91    2
   124    14    15    1
