@<TRIPOS>MOLECULE
tmp/1tb6C06.pdb
 87 85 0 0 0
SMALL
GASTEIGER

@<TRIPOS>ATOM
      1  N         42.5320   -6.8310   -9.1950 N.3     4  ILE4       -0.1231
      2  CA        43.1130   -5.7370   -9.9660 C.3     4  ILE4        0.1692
      3  C         44.1160   -4.9260   -9.1560 C.2     4  ILE4        0.2592
      4  O         45.0200   -4.2990   -9.7140 O.2     4  ILE4       -0.2718
      5  CB        42.0280   -4.7700  -10.5150 C.3     4  ILE4        0.0266
      6  CG1       40.9830   -4.4600   -9.4370 C.3     4  ILE4        0.0019
      7  CG2       41.3950   -5.3630  -11.7540 C.3     4  ILE4        0.0020
      8  CD1       40.0360   -5.6160   -9.1030 C.3     4  ILE4        0.0001
      9  N         43.9630   -4.9470   -7.8380 N.am    5  CYS5       -0.1970
     10  CA        44.8560   -4.1970   -6.9710 C.3     5  CYS5        0.1712
     11  C         46.2240   -4.8550   -6.8010 C.2     5  CYS5        0.2296
     12  O         47.1600   -4.2200   -6.3130 O.2     5  CYS5       -0.2864
     13  CB        44.2160   -4.0030   -5.5970 C.3     5  CYS5        0.0983
     14  SG        42.6060   -3.1330   -5.5640 S.3     5  CYS5       -0.0798
     15  N         42.7810    2.3090  -12.1020 N.3   111  ALA111     -0.1245
     16  CA        42.2300    1.3720  -11.1290 C.3   111  ALA111      0.1562
     17  C         43.2760    1.2290  -10.0370 C.2   111  ALA111      0.2260
     18  O         42.9680    1.3030   -8.8400 O.2   111  ALA111     -0.2867
     19  CB        41.9660    0.0290  -11.7740 C.3   111  ALA111      0.0290
     20  N         43.3380    4.2500   -7.9190 N.3   114  ASN114     -0.1225
     21  CA        42.1480    4.2400   -7.0760 C.3   114  ASN114      0.1785
     22  C         42.1810    3.1890   -5.9730 C.2   114  ASN114      0.2597
     23  O         41.8090    3.4830   -4.8370 O.2   114  ASN114     -0.2718
     24  CB        40.9030    4.0560   -7.9420 C.3   114  ASN114      0.1169
     25  CG        40.5650    5.3020   -8.7370 C.2   114  ASN114      0.2627
     26  OD1       40.0660    5.2200   -9.8640 O.2   114  ASN114     -0.2716
     27  ND2       40.8330    6.4680   -8.1530 N.am  114  ASN114     -0.0877
     28  N         42.6020    1.9670   -6.3010 N.am  115  CYS115     -0.1970
     29  CA        42.7020    0.9130   -5.2900 C.3   115  CYS115      0.1712
     30  C         43.4180    1.5140   -4.0880 C.2   115  CYS115      0.2296
     31  O         42.9040    1.5380   -2.9760 O.2   115  CYS115     -0.2864
     32  CB        43.5620   -0.2510   -5.7790 C.3   115  CYS115      0.0983
     33  SG        42.8040   -1.5360   -6.8190 S.3   115  CYS115     -0.0798
     34  N         41.3480    4.1380   -2.2760 N.3   118  TYR118     -0.1227
     35  CA        40.1550    3.6440   -1.6170 C.3   118  TYR118      0.1736
     36  C         40.4740    3.0280   -0.2530 C.2   118  TYR118      0.2595
     37  O         39.8660    3.3880    0.7560 O.2   118  TYR118     -0.2718
     38  CB        39.4410    2.6180   -2.4930 C.3   118  TYR118      0.0548
     39  CG        38.0050    2.4060   -2.0670 C.ar  118  TYR118     -0.0200
     40  CD1       37.6820    1.5700   -0.9860 C.ar  118  TYR118     -0.0009
     41  CD2       36.9680    3.1070   -2.6900 C.ar  118  TYR118     -0.0009
     42  CE1       36.3570    1.4430   -0.5340 C.ar  118  TYR118      0.0417
     43  CE2       35.6430    2.9910   -2.2480 C.ar  118  TYR118      0.0417
     44  CZ        35.3420    2.1620   -1.1700 C.ar  118  TYR118      0.1957
     45  OH        34.0340    2.0830   -0.7260 O.3   118  TYR118     -0.2866
     46  N         41.4360    2.1120   -0.2120 N.am  119  ARG119     -0.1980
     47  CA        41.7920    1.4560    1.0430 C.3   119  ARG119      0.1597
     48  C         42.4560    2.3360    2.1080 C.2   119  ARG119      0.2287
     49  O         42.5060    1.9550    3.2800 O.2   119  ARG119     -0.2864
     50  CB        42.6640    0.2270    0.7630 C.3   119  ARG119      0.0334
     51  CG        41.8720   -0.9580    0.2150 C.3   119  ARG119      0.0492
     52  CD        41.4440   -0.7570   -1.2400 C.3   119  ARG119      0.2205
     53  NE        42.5880   -0.8560   -2.1400 N.pl3 119  ARG119     -0.0865
     54  CZ        43.3310   -1.9510   -2.2950 C.cat 119  ARG119      0.5346
     55  NH1       43.0450   -3.0530   -1.6080 N.pl3 119  ARG119      0.1354
     56  NH2       44.3760   -1.9410   -3.1200 N.pl3 119  ARG119      0.1354
     57  N         35.9900   -5.0500  -14.7230 N.3   151  LEU151     -0.1231
     58  CA        37.2040   -5.3820  -14.0050 C.3   151  LEU151      0.1693
     59  C         37.9220   -4.1320  -13.4880 C.2   151  LEU151      0.2592
     60  O         38.3030   -4.0560  -12.3130 O.2   151  LEU151     -0.2718
     61  CB        38.1440   -6.1700  -14.9240 C.3   151  LEU151      0.0284
     62  CG        39.4550   -6.6320  -14.2940 C.3   151  LEU151      0.0019
     63  CD1       39.1640   -7.7830  -13.3410 C.3   151  LEU151      0.0001
     64  CD2       40.4320   -7.0620  -15.3670 C.3   151  LEU151      0.0001
     65  N         38.0770   -3.1450  -14.3640 N.am  152  VAL152     -0.1966
     66  CA        38.8030   -1.9270  -14.0270 C.3   152  VAL152      0.1727
     67  C         38.0070   -0.7160  -13.5030 C.2   152  VAL152      0.2616
     68  O         38.5720    0.1600  -12.8420 O.2   152  VAL152     -0.2715
     69  CB        39.6420   -1.4860  -15.2470 C.3   152  VAL152      0.0290
     70  CG1       38.7530   -0.7900  -16.2820 C.3   152  VAL152      0.0023
     71  CG2       40.7600   -0.5910  -14.8010 C.3   152  VAL152      0.0023
     72  N         36.7080   -0.6620  -13.7850 N.am  153  TYR153     -0.1960
     73  CA        35.8790    0.4620  -13.3480 C.3   153  TYR153      0.1771
     74  C         34.7950    0.0600  -12.3430 C.2   153  TYR153      0.2620
     75  O         33.9770    0.8870  -11.9350 O.2   153  TYR153     -0.2715
     76  CB        35.2410    1.1360  -14.5720 C.3   153  TYR153      0.0574
     77  CG        34.7280    2.5420  -14.3310 C.ar  153  TYR153     -0.0198
     78  CD1       35.5170    3.4960  -13.6800 C.ar  153  TYR153     -0.0009
     79  CD2       33.4640    2.9260  -14.7720 C.ar  153  TYR153     -0.0009
     80  CE1       35.0620    4.7930  -13.4740 C.ar  153  TYR153      0.0417
     81  CE2       32.9970    4.2210  -14.5710 C.ar  153  TYR153      0.0417
     82  CZ        33.8010    5.1500  -13.9200 C.ar  153  TYR153      0.1957
     83  OH        33.3400    6.4270  -13.7190 O.3   153  TYR153     -0.2866
     84  N         34.7880   -1.2090  -11.9460 N.am  154  GLY154     -0.1954
     85  CA        33.8060   -1.6710  -10.9780 C.3   154  GLY154      0.1869
     86  C         32.5020   -2.1970  -11.5530 C.2   154  GLY154      0.2309
     87  O         31.8900   -3.1050  -10.9920 O.2   154  GLY154     -0.2863
@<TRIPOS>BOND
     1    70    69    1
     2    64    62    1
     3    69    71    1
     4    69    66    1
     5    61    62    1
     6    61    58    1
     7    79    81   ar
     8    79    77   ar
     9    57    58    1
    10    76    77    1
    11    76    73    1
    12    81    82   ar
    13    65    66    1
    14    65    59   am
    15    77    78   ar
    16    62    63    1
    17    66    67    1
    18    58    59    1
    19    82    83    1
    20    82    80   ar
    21    72    67   am
    22    72    73    1
    23    78    80   ar
    24    67    68    2
    25    59    60    2
    26    73    74    1
    27    74    84   am
    28    74    75    2
    29    15    16    1
    30    84    85    1
    31    19    16    1
    32     7     5    1
    33    86    87    2
    34    86    85    1
    35    16    17    1
    36     5     2    1
    37     5     6    1
    38    17    18    2
    39     2     1    1
    40     2     3    1
    41    26    25    2
    42     4     3    2
    43     6     8    1
    44     3     9   am
    45    25    27   am
    46    25    24    1
    47    24    21    1
    48    20    21    1
    49     9    10    1
    50    21    22    1
    51    10    11    1
    52    10    13    1
    53    33    32    1
    54    33    14    1
    55    11    12    2
    56    28    22   am
    57    28    29    1
    58    22    23    2
    59    32    29    1
    60    13    14    1
    61    29    30    1
    62    30    31    2
    63    56    54    1
    64    41    43   ar
    65    41    39   ar
    66    38    39    1
    67    38    35    1
    68    54    53    2
    69    54    55    1
    70    34    35    1
    71    43    44   ar
    72    53    52    1
    73    39    40   ar
    74    35    36    1
    75    52    51    1
    76    44    45    1
    77    44    42   ar
    78    40    42   ar
    79    36    46   am
    80    36    37    2
    81    46    47    1
    82    51    50    1
    83    50    47    1
    84    47    48    1
    85    48    49    2
