@<TRIPOS>MOLECULE
tmp/1tb6B01.pdb
 111 107 0 0 0
SMALL
GASTEIGER

@<TRIPOS>ATOM
      1  N         52.4310   33.5930   49.4320 N.3     8  GLU8       -0.1231
      2  CA        53.3730   34.2460   50.3360 C.3     8  GLU8        0.1699
      3  C         54.6960   33.5070   50.2100 C.2     8  GLU8        0.2592
      4  O         54.7300   32.3670   49.7360 O.2     8  GLU8       -0.2718
      5  CB        52.8980   34.1570   51.7890 C.3     8  GLU8        0.0402
      6  CG        51.5640   34.8360   52.0790 C.3     8  GLU8        0.1161
      7  CD        51.1110   34.6530   53.5260 C.2     8  GLU8        0.3649
      8  OE1       51.8100   35.1380   54.4490 O.co2   8  GLU8       -0.2457
      9  OE2       50.0540   34.0190   53.7320 O.co2   8  GLU8       -0.2457
     10  N         55.7770   34.1510   50.6430 N.am    9  ILE9       -0.1966
     11  CA        57.1020   33.5400   50.5910 C.3     9  ILE9        0.1727
     12  C         57.1250   32.2650   51.4280 C.2     9  ILE9        0.2617
     13  O         56.7230   32.2730   52.5910 O.2     9  ILE9       -0.2715
     14  CB        58.1950   34.4990   51.1360 C.3     9  ILE9        0.0290
     15  CG1       58.2530   35.7710   50.2880 C.3     9  ILE9        0.0022
     16  CG2       59.5550   33.8110   51.1200 C.3     9  ILE9        0.0023
     17  CD1       58.6130   35.5170   48.8440 C.3     9  ILE9        0.0001
     18  N         57.5950   31.1770   50.8250 N.am   10  GLY10      -0.1940
     19  CA        57.6860   29.8990   51.5140 C.3    10  GLY10       0.2014
     20  C         56.3600   29.2250   51.8160 C.2    10  GLY10       0.2639
     21  O         56.3140   28.2440   52.5620 O.2    10  GLY10      -0.2714
     22  N         55.2810   29.7440   51.2390 N.am   11  MET11      -0.1963
     23  CA        53.9470   29.1950   51.4670 C.3    11  MET11       0.1736
     24  C         53.7710   27.7980   50.8720 C.2    11  MET11       0.2617
     25  O         52.9460   27.0090   51.3420 O.2    11  MET11      -0.2715
     26  CB        52.8960   30.1380   50.8760 C.3    11  MET11       0.0427
     27  CG        51.4540   29.7200   51.1230 C.3    11  MET11       0.0599
     28  SD        50.3060   30.5940   50.0340 S.3    11  MET11      -0.1393
     29  CE        49.5710   31.7720   51.1460 C.3    11  MET11       0.0692
     30  N         54.5450   27.5020   49.8340 N.am   12  SER12      -0.1936
     31  CA        54.4720   26.2140   49.1570 C.3    12  SER12       0.2040
     32  C         55.8880   25.7680   48.7880 C.2    12  SER12       0.2485
     33  O         56.2450   25.7110   47.6140 O.2    12  SER12      -0.2729
     34  CB        53.6110   26.3570   47.9030 C.3    12  SER12       0.2129
     35  OG        53.4100   25.1060   47.2800 O.3    12  SER12      -0.2179
     36  N         56.7000   25.4120   49.7960 N.am   13  PRO13      -0.2726
     37  CA        58.0890   24.9760   49.6260 C.3    13  PRO13       0.1402
     38  C         58.3400   23.6900   48.8390 C.2    13  PRO13       0.2269
     39  O         59.4910   23.3200   48.6020 O.2    13  PRO13      -0.2865
     40  CB        58.5890   24.8910   51.0640 C.3    13  PRO13       0.0296
     41  CG        57.3890   24.4010   51.7860 C.3    13  PRO13       0.0237
     42  CD        56.2610   25.2250   51.1910 C.3    13  PRO13       0.0939
     43  N         56.6420   23.1900   45.8440 N.3    15  GLN15      -0.1245
     44  CA        56.3020   23.5110   44.4680 C.3    15  GLN15       0.1566
     45  C         57.5360   23.3680   43.5890 C.2    15  GLN15       0.2260
     46  O         58.5840   23.9330   43.8840 O.2    15  GLN15      -0.2867
     47  CB        55.7810   24.9450   44.3750 C.3    15  GLN15       0.0367
     48  CG        55.0190   25.2490   43.1000 C.3    15  GLN15       0.0905
     49  CD        53.6910   24.5340   43.0570 C.2    15  GLN15       0.2608
     50  OE1       53.0100   24.4320   44.0700 O.2    15  GLN15      -0.2717
     51  NE2       53.3080   24.0490   41.8880 N.am   15  GLN15      -0.0878
     52  N         62.0640   25.5470   44.7560 N.3    64  GLY64      -0.1210
     53  CA        62.0850   26.6520   45.6940 C.3    64  GLY64       0.1956
     54  C         61.9780   28.0270   45.0660 C.2    64  GLY64       0.2612
     55  O         62.4980   28.9970   45.6220 O.2    64  GLY64      -0.2717
     56  N         61.3070   28.1160   43.9160 N.am   65  LYS65      -0.1965
     57  CA        61.1390   29.3850   43.2170 C.3    65  LYS65       0.1728
     58  C         59.8620   30.1290   43.6160 C.2    65  LYS65       0.2616
     59  O         58.9080   29.5300   44.0870 O.2    65  LYS65      -0.2715
     60  CB        61.1390   29.1560   41.7010 C.3    65  LYS65       0.0311
     61  CG        62.5130   28.9210   41.0930 C.3    65  LYS65       0.0038
     62  CD        62.5290   29.2420   39.5990 C.3    65  LYS65       0.0206
     63  CE        62.0780   30.6820   39.3220 C.3    65  LYS65       0.1093
     64  NZ        62.8810   31.7290   40.0380 N.3    65  LYS65      -0.1314
     65  N         59.8640   31.4460   43.4500 N.am   66  HIS66      -0.1973
     66  CA        58.6980   32.2670   43.7730 C.3    66  HIS66       0.1656
     67  C         58.3100   33.0470   42.5120 C.2    66  HIS66       0.2291
     68  O         57.1920   32.9200   42.0060 O.2    66  HIS66      -0.2864
     69  CB        59.0190   33.2360   44.9180 C.3    66  HIS66       0.0771
     70  CG        57.8570   34.0830   45.3330 C.ar   66  HIS66       0.0820
     71  ND1       56.6660   33.5480   45.7740 N.ar   66  HIS66      -0.2267
     72  CD2       57.6930   35.4290   45.3450 C.ar   66  HIS66       0.1154
     73  CE1       55.8180   34.5270   46.0380 C.ar   66  HIS66       0.1986
     74  NE2       56.4160   35.6780   45.7860 N.ar   66  HIS66      -0.2212
     75  N         66.4540   33.7150   41.1960 N.3    72  GLU72      -0.1245
     76  CA        66.5250   33.9670   42.6270 C.3    72  GLU72       0.1567
     77  C         67.7270   33.3050   43.3050 C.2    72  GLU72       0.2260
     78  O         67.5980   32.2940   43.9980 O.2    72  GLU72      -0.2867
     79  CB        65.1930   33.5300   43.2420 C.3    72  GLU72       0.0388
     80  CG        64.0210   34.1880   42.4970 C.3    72  GLU72       0.1160
     81  CD        62.6450   33.6310   42.8330 C.2    72  GLU72       0.3649
     82  OE1       62.3690   32.4520   42.5290 O.co2  72  GLU72      -0.2457
     83  OE2       61.8280   34.3880   43.3900 O.co2  72  GLU72      -0.2457
     84  N         68.4940   30.8010   46.5550 N.3    75  ILE75      -0.1245
     85  CA        67.1960   30.3730   47.0610 C.3    75  ILE75       0.1561
     86  C         66.6370   29.2360   46.2370 C.2    75  ILE75       0.2260
     87  O         66.1240   28.2640   46.7790 O.2    75  ILE75      -0.2867
     88  CB        66.1690   31.5170   47.0520 C.3    75  ILE75       0.0252
     89  CG1       66.5470   32.5570   48.1050 C.3    75  ILE75       0.0019
     90  CG2       64.7740   30.9690   47.3210 C.3    75  ILE75       0.0019
     91  CD1       65.5900   33.7300   48.1730 C.3    75  ILE75       0.0001
     92  N         62.8410   27.3080   51.9830 N.3   114  TYR114     -0.1241
     93  CA        62.1820   27.4490   50.6990 C.3   114  TYR114      0.1605
     94  C         61.9320   26.1380   49.9480 C.2   114  TYR114      0.2264
     95  O         61.0690   26.0660   49.0700 O.2   114  TYR114     -0.2867
     96  CB        63.0210   28.4040   49.8500 C.3   114  TYR114      0.0534
     97  CG        63.3180   29.7110   50.5570 C.ar  114  TYR114     -0.0201
     98  CD1       62.2830   30.5060   51.0380 C.ar  114  TYR114     -0.0009
     99  CD2       64.6280   30.1730   50.7150 C.ar  114  TYR114     -0.0009
    100  CE1       62.5220   31.7280   51.6500 C.ar  114  TYR114      0.0417
    101  CE2       64.8850   31.4060   51.3320 C.ar  114  TYR114      0.0417
    102  CZ        63.8210   32.1770   51.7940 C.ar  114  TYR114      0.1957
    103  OH        64.0410   33.3950   52.3880 O.3   114  TYR114     -0.2866
    104  N         54.3110   33.0380   41.8430 N.3   160  LEU160     -0.1245
    105  CA        53.4810   31.8900   42.1490 C.3   160  LEU160      0.1561
    106  C         52.0750   32.3010   42.5930 C.2   160  LEU160      0.2260
    107  O         51.9080   33.1610   43.4560 O.2   160  LEU160     -0.2867
    108  CB        54.1430   31.0630   43.2410 C.3   160  LEU160      0.0270
    109  CG        53.4120   29.7690   43.5620 C.3   160  LEU160      0.0019
    110  CD1       53.5040   28.8380   42.3690 C.3   160  LEU160      0.0001
    111  CD2       54.0330   29.1320   44.7840 C.3   160  LEU160      0.0001
@<TRIPOS>BOND
     1    63    62    1
     2    63    64    1
     3    62    61    1
     4    61    60    1
     5    75    76    1
     6    60    57    1
     7   104   105    1
     8    51    49   am
     9    68    67    2
    10   105   106    1
    11   105   108    1
    12   110   109    1
    13    80    81    1
    14    80    79    1
    15    67    66    1
    16    82    81   ar
    17   106   107    2
    18    76    79    1
    19    76    77    1
    20    81    83   ar
    21    49    48    1
    22    49    50    2
    23    48    47    1
    24    57    58    1
    25    57    56    1
    26   108   109    1
    27    77    78    2
    28    65    58   am
    29    65    66    1
    30   109   111    1
    31    45    46    2
    32    45    44    1
    33    58    59    2
    34    66    69    1
    35    56    54   am
    36    47    44    1
    37    44    43    1
    38    52    53    1
    39    69    70    1
    40    54    55    2
    41    54    53    1
    42    70    72   ar
    43    70    71   ar
    44    72    74   ar
    45    71    73   ar
    46    74    73   ar
    47    86    87    2
    48    86    85    1
    49    84    85    1
    50    88    85    1
    51    88    90    1
    52    88    89    1
    53    35    34    1
    54    33    32    2
    55    34    31    1
    56    89    91    1
    57    39    38    2
    58    32    31    1
    59    32    36   am
    60    38    37    1
    61    17    15    1
    62    95    94    2
    63    31    30    1
    64     1     2    1
    65    37    36    1
    66    37    40    1
    67     4     3    2
    68    36    42    1
    69    30    24   am
    70    96    97    1
    71    96    93    1
    72    94    93    1
    73    28    27    1
    74    28    29    1
    75     3     2    1
    76     3    10   am
    77    15    14    1
    78     2     5    1
    79    97    99   ar
    80    97    98   ar
    81    11    10    1
    82    11    14    1
    83    11    12    1
    84    93    92    1
    85    99   101   ar
    86    18    12   am
    87    18    19    1
    88    24    25    2
    89    24    23    1
    90    26    27    1
    91    26    23    1
    92    98   100   ar
    93    40    41    1
    94    16    14    1
    95    42    41    1
    96    22    23    1
    97    22    20   am
    98   101   102   ar
    99    12    13    2
   100    19    20    1
   101   100   102   ar
   102     5     6    1
   103   102   103    1
   104    20    21    2
   105     6     7    1
   106     7     9   ar
   107     7     8   ar
