@<TRIPOS>MOLECULE
tmp/1tb6C04.pdb
 87 79 0 0 0
SMALL
GASTEIGER

@<TRIPOS>ATOM
      1  N         39.8300   13.8080   -9.8520 N.3    68  LEU68      -0.1231
      2  CA        40.2810   12.4320   -9.9550 C.3    68  LEU68       0.1693
      3  C         39.1440   11.5420  -10.4670 C.2    68  LEU68       0.2592
      4  O         39.3350   10.7240  -11.3700 O.2    68  LEU68      -0.2718
      5  CB        40.7590   11.9860   -8.5720 C.3    68  LEU68       0.0284
      6  CG        41.4870   10.6670   -8.3450 C.3    68  LEU68       0.0019
      7  CD1       40.4870    9.5290   -8.3540 C.3    68  LEU68       0.0001
      8  CD2       42.5550   10.5020   -9.4130 C.3    68  LEU68       0.0001
      9  N         37.9550   11.7020   -9.9010 N.am   69  SER69      -0.1952
     10  CA        36.8090   10.9150  -10.3340 C.3    69  SER69       0.1924
     11  C         36.4140   11.2290  -11.7960 C.2    69  SER69       0.2314
     12  O         36.0000   10.3330  -12.5480 O.2    69  SER69      -0.2863
     13  CB        35.6400   11.1680   -9.3820 C.3    69  SER69       0.2116
     14  OG        34.4010   11.0100  -10.0410 O.3    69  SER69      -0.2180
     15  N         39.0290    9.7300  -14.2100 N.3    72  THR72      -0.1218
     16  CA        38.8500    8.2850  -14.2850 C.3    72  THR72       0.1862
     17  C         37.7050    7.9580  -15.2310 C.2    72  THR72       0.2287
     18  O         37.8330    7.0860  -16.0990 O.2    72  THR72      -0.2866
     19  CB        38.5390    7.6700  -12.9010 C.3    72  THR72       0.1770
     20  OG1       39.6480    7.8820  -12.0190 O.3    72  THR72      -0.2211
     21  CG2       38.2980    6.1690  -13.0190 C.3    72  THR72       0.0375
     22  N         43.3380    4.2500   -7.9190 N.3   114  ASN114     -0.1240
     23  CA        42.1480    4.2400   -7.0760 C.3   114  ASN114      0.1653
     24  C         42.1810    3.1890   -5.9730 C.2   114  ASN114      0.2266
     25  O         41.8090    3.4830   -4.8370 O.2   114  ASN114     -0.2867
     26  CB        40.9030    4.0560   -7.9420 C.3   114  ASN114      0.1155
     27  CG        40.5650    5.3020   -8.7370 C.2   114  ASN114      0.2627
     28  OD1       40.0660    5.2200   -9.8640 O.2   114  ASN114     -0.2716
     29  ND2       40.8330    6.4680   -8.1530 N.am  114  ASN114     -0.0877
     30  N         43.9750    4.5150   -3.1620 N.3   117  LEU117     -0.1231
     31  CA        43.2830    5.5980   -2.4730 C.3   117  LEU117      0.1693
     32  C         42.0420    5.1290   -1.7320 C.2   117  LEU117      0.2592
     33  O         41.7210    5.6530   -0.6710 O.2   117  LEU117     -0.2718
     34  CB        42.9200    6.7220   -3.4540 C.3   117  LEU117      0.0284
     35  CG        44.0970    7.4140   -4.1570 C.3   117  LEU117      0.0019
     36  CD1       43.5770    8.4190   -5.1590 C.3   117  LEU117      0.0001
     37  CD2       45.0000    8.0950   -3.1360 C.3   117  LEU117      0.0001
     38  N         41.3480    4.1380   -2.2760 N.am  118  TYR118     -0.1976
     39  CA        40.1550    3.6440   -1.6170 C.3   118  TYR118      0.1639
     40  C         40.4740    3.0280   -0.2530 C.2   118  TYR118      0.2290
     41  O         39.8660    3.3880    0.7560 O.2   118  TYR118     -0.2864
     42  CB        39.4410    2.6180   -2.4930 C.3   118  TYR118      0.0560
     43  CG        38.0050    2.4060   -2.0670 C.ar  118  TYR118     -0.0198
     44  CD1       37.6820    1.5700   -0.9860 C.ar  118  TYR118     -0.0009
     45  CD2       36.9680    3.1070   -2.6900 C.ar  118  TYR118     -0.0009
     46  CE1       36.3570    1.4430   -0.5340 C.ar  118  TYR118      0.0417
     47  CE2       35.6430    2.9910   -2.2480 C.ar  118  TYR118      0.0417
     48  CZ        35.3420    2.1620   -1.1700 C.ar  118  TYR118      0.1957
     49  OH        34.0340    2.0830   -0.7260 O.3   118  TYR118     -0.2866
     50  N         34.8000    7.2000    2.5500 N.3   127  LEU127     -0.1245
     51  CA        34.9800    7.4580    1.1170 C.3   127  LEU127      0.1561
     52  C         34.1970    6.5300    0.1630 C.2   127  LEU127      0.2260
     53  O         34.7730    5.6120   -0.4310 O.2   127  LEU127     -0.2867
     54  CB        36.4740    7.4160    0.7600 C.3   127  LEU127      0.0270
     55  CG        36.8520    7.6520   -0.7110 C.3   127  LEU127      0.0019
     56  CD1       36.1300    8.8650   -1.2460 C.3   127  LEU127      0.0001
     57  CD2       38.3450    7.8540   -0.8490 C.3   127  LEU127      0.0001
     58  N         31.5840    5.8770   -3.2840 N.3   129  SER129     -0.1217
     59  CA        31.3300    6.4440   -4.6070 C.3   129  SER129      0.1889
     60  C         30.3870    5.5800   -5.4560 C.2   129  SER129      0.2288
     61  O         30.1630    4.4090   -5.1570 O.2   129  SER129     -0.2866
     62  CB        32.6540    6.6490   -5.3490 C.3   129  SER129      0.2089
     63  OG        33.1480    5.4340   -5.8760 O.3   129  SER129     -0.2183
     64  N         29.9070    5.1580   -9.6030 N.3   131  ASN131     -0.1240
     65  CA        30.2000    5.5660  -10.9690 C.3   131  ASN131      0.1653
     66  C         29.6680    4.5760  -11.9710 C.2   131  ASN131      0.2266
     67  O         29.6190    3.3750  -11.7060 O.2   131  ASN131     -0.2867
     68  CB        31.7040    5.7110  -11.1600 C.3   131  ASN131      0.1155
     69  CG        32.3580    6.4010   -9.9990 C.2   131  ASN131      0.2627
     70  OD1       31.9010    7.4480   -9.5530 O.2   131  ASN131     -0.2716
     71  ND2       33.4310    5.8220   -9.4990 N.am  131  ASN131     -0.0877
     72  N         30.7200   11.0140   -5.7810 N.3   206  ILE206     -0.1245
     73  CA        31.6030   10.6120   -4.7000 C.3   206  ILE206      0.1561
     74  C         31.2630   11.3460   -3.3970 C.2   206  ILE206      0.2260
     75  O         30.8970   12.5160   -3.4100 O.2   206  ILE206     -0.2867
     76  CB        33.0530   10.8640   -5.1260 C.3   206  ILE206      0.0252
     77  CG1       34.0240   10.4240   -4.0410 C.3   206  ILE206      0.0019
     78  CG2       33.2370   12.3220   -5.4680 C.3   206  ILE206      0.0019
     79  CD1       35.4600   10.4380   -4.5290 C.3   206  ILE206      0.0001
     80  N         42.4420   14.6710   -4.4010 N.3   402  ILE402     -0.1245
     81  CA        41.2670   13.8190   -4.4850 C.3   402  ILE402      0.1561
     82  C         40.0460   14.7120   -4.6610 C.2   402  ILE402      0.2260
     83  O         39.2210   14.4670   -5.5350 O.2   402  ILE402     -0.2867
     84  CB        41.1200   12.9700   -3.2100 C.3   402  ILE402      0.0252
     85  CG1       42.4760   12.3530   -2.8450 C.3   402  ILE402      0.0019
     86  CG2       40.1320   11.8660   -3.4380 C.3   402  ILE402      0.0019
     87  CD1       42.4750   11.5460   -1.5650 C.3   402  ILE402      0.0001
@<TRIPOS>BOND
     1    18    17    2
     2    17    16    1
     3    16    15    1
     4    16    19    1
     5    21    19    1
     6    19    20    1
     7    12    11    2
     8    66    67    2
     9    66    65    1
    10    11    10    1
    11     4     3    2
    12    68    65    1
    13    68    69    1
    14    65    64    1
    15     3     2    1
    16     3     9   am
    17    10     9    1
    18    10    13    1
    19    14    13    1
    20    69    70    2
    21    69    71   am
    22     2     1    1
    23     2     5    1
    24    28    27    2
    25     8     6    1
    26    27    29   am
    27    27    26    1
    28     5     6    1
    29     7     6    1
    30    26    23    1
    31    22    23    1
    32    23    24    1
    33    24    25    2
    34    63    62    1
    35    72    73    1
    36    83    82    2
    37    78    76    1
    38    60    61    2
    39    60    59    1
    40    62    59    1
    41    36    35    1
    42    76    73    1
    43    76    77    1
    44    73    74    1
    45    82    81    1
    46    59    58    1
    47    79    77    1
    48    81    80    1
    49    81    84    1
    50    35    34    1
    51    35    37    1
    52    34    31    1
    53    86    84    1
    54    75    74    2
    55    84    85    1
    56    30    31    1
    57    85    87    1
    58    45    47   ar
    59    45    43   ar
    60    42    43    1
    61    42    39    1
    62    31    32    1
    63    38    32   am
    64    38    39    1
    65    47    48   ar
    66    43    44   ar
    67    32    33    2
    68    39    40    1
    69    56    55    1
    70    48    49    1
    71    48    46   ar
    72    44    46   ar
    73    57    55    1
    74    55    54    1
    75    53    52    2
    76    40    41    2
    77    52    51    1
    78    54    51    1
    79    51    50    1
