@<TRIPOS>MOLECULE
tmp/1tb7B00.pdb
 198 192 0 0 0
SMALL
GASTEIGER

@<TRIPOS>ATOM
      1  N         22.6320   13.9510   70.7850 N.3    74  TYR74      -0.1227
      2  CA        22.7830   12.4980   70.7060 C.3    74  TYR74       0.1736
      3  C         23.7220   12.0060   69.5960 C.2    74  TYR74       0.2595
      4  O         24.7090   11.3360   69.8840 O.2    74  TYR74      -0.2718
      5  CB        21.4050   11.8330   70.5840 C.3    74  TYR74       0.0548
      6  CG        21.4540   10.3180   70.6710 C.ar   74  TYR74      -0.0200
      7  CD1       21.3590    9.6600   71.8960 C.ar   74  TYR74      -0.0009
      8  CD2       21.6080    9.5410   69.5230 C.ar   74  TYR74      -0.0009
      9  CE1       21.4100    8.2700   71.9770 C.ar   74  TYR74       0.0417
     10  CE2       21.6710    8.1580   69.5900 C.ar   74  TYR74       0.0417
     11  CZ        21.5740    7.5240   70.8120 C.ar   74  TYR74       0.1957
     12  OH        21.6270    6.1560   70.8550 O.3    74  TYR74      -0.2866
     13  N         23.4060   12.3020   68.3370 N.am   75  HIS75      -0.1975
     14  CA        24.1830   11.7720   67.1910 C.3    75  HIS75       0.1656
     15  C         25.5060   12.4920   66.9700 C.2    75  HIS75       0.2291
     16  O         25.7770   13.0540   65.9060 O.2    75  HIS75      -0.2864
     17  CB        23.3420   11.8360   65.9260 C.3    75  HIS75       0.0771
     18  CG        22.0740   11.0530   66.0070 C.ar   75  HIS75       0.0820
     19  ND1       20.8500   11.6440   66.2350 N.ar   75  HIS75      -0.2267
     20  CD2       21.8360    9.7250   65.8900 C.ar   75  HIS75       0.1154
     21  CE1       19.9140   10.7120   66.2470 C.ar   75  HIS75       0.1986
     22  NE2       20.4850    9.5400   66.0530 N.ar   75  HIS75      -0.2212
     23  N         28.3130    9.3320   70.8630 N.3    79  HIS79      -0.1241
     24  CA        27.5380    8.1870   70.3720 C.3    79  HIS79       0.1621
     25  C         28.4020    7.3030   69.4800 C.2    79  HIS79       0.2264
     26  O         28.3500    6.0890   69.5810 O.2    79  HIS79      -0.2867
     27  CB        26.3200    8.6520   69.5800 C.3    79  HIS79       0.0745
     28  CG        25.5470    7.5460   68.9200 C.ar   79  HIS79       0.0817
     29  ND1       24.8560    6.5890   69.6340 N.ar   79  HIS79      -0.2268
     30  CD2       25.3410    7.2570   67.6130 C.ar   79  HIS79       0.1154
     31  CE1       24.2460    5.7710   68.7930 C.ar   79  HIS79       0.1986
     32  NE2       24.5130    6.1630   67.5600 N.ar   79  HIS79      -0.2212
     33  N         29.4880    5.3610   61.4670 N.3   115  HIS115     -0.1226
     34  CA        28.0950    5.0190   61.2120 C.3   115  HIS115      0.1752
     35  C         27.0570    6.1410   61.2510 C.2   115  HIS115      0.2596
     36  O         26.0280    6.0000   60.6100 O.2   115  HIS115     -0.2718
     37  CB        27.6500    3.8400   62.0850 C.3   115  HIS115      0.0759
     38  CG        26.9790    4.2500   63.3480 C.ar  115  HIS115      0.0818
     39  ND1       27.6760    4.5620   64.4940 N.ar  115  HIS115     -0.2268
     40  CD2       25.6710    4.4340   63.6350 C.ar  115  HIS115      0.1154
     41  CE1       26.8200    4.9190   65.4380 C.ar  115  HIS115      0.1986
     42  NE2       25.5960    4.8350   64.9460 N.ar  115  HIS115     -0.2212
     43  N         27.3310    7.2270   61.9770 N.am  116  ASP116     -0.1974
     44  CA        26.4220    8.3790   62.0660 C.3   116  ASP116      0.1709
     45  C         27.1150    9.7000   61.7150 C.2   116  ASP116      0.2293
     46  O         26.6010   10.7720   62.0080 O.2   116  ASP116     -0.2864
     47  CB        25.8250    8.4940   63.4870 C.3   116  ASP116      0.1436
     48  CG        24.5420    7.6890   63.6730 C.2   116  ASP116      0.3671
     49  OD1       23.8560    7.3480   62.6880 O.co2 116  ASP116     -0.2456
     50  OD2       24.1280    7.3950   64.8090 O.co2 116  ASP116     -0.2456
     51  N         25.6910   13.6220   60.9660 N.3   119  HIS119     -0.1241
     52  CA        24.2600   13.5270   61.2830 C.3   119  HIS119      0.1621
     53  C         23.7530   14.9280   61.6190 C.2   119  HIS119      0.2264
     54  O         24.3740   15.6060   62.4410 O.2   119  HIS119     -0.2867
     55  CB        24.0240   12.6030   62.4890 C.3   119  HIS119      0.0745
     56  CG        22.6210   12.0750   62.5800 C.ar  119  HIS119      0.0817
     57  ND1       21.5160   12.8980   62.6180 N.ar  119  HIS119     -0.2268
     58  CD2       22.1450   10.8060   62.6450 C.ar  119  HIS119      0.1154
     59  CE1       20.4190   12.1590   62.6720 C.ar  119  HIS119      0.1986
     60  NE2       20.7720   10.8870   62.6960 N.ar  119  HIS119     -0.2212
     61  N         21.9900    7.0550   56.1950 N.3   145  GLU145     -0.1245
     62  CA        22.9640    5.9620   56.2370 C.3   145  GLU145      0.1567
     63  C         23.8870    5.9670   55.0140 C.2   145  GLU145      0.2260
     64  O         25.0840    5.7420   55.1340 O.2   145  GLU145     -0.2867
     65  CB        22.2480    4.6250   56.4200 C.3   145  GLU145      0.0388
     66  CG        21.5580    4.4840   57.7760 C.3   145  GLU145      0.1160
     67  CD        20.2080    5.1860   57.8690 C.2   145  GLU145      0.3649
     68  OE1       19.6580    5.6040   56.8330 O.co2 145  GLU145     -0.2457
     69  OE2       19.6860    5.3180   58.9990 O.co2 145  GLU145     -0.2457
     70  N         26.2500    8.9260   55.6870 N.3   148  HIS148     -0.1241
     71  CA        27.2740    8.6270   56.7000 C.3   148  HIS148      0.1621
     72  C         28.4130    7.8420   56.0330 C.2   148  HIS148      0.2264
     73  O         29.5930    8.1360   56.2190 O.2   148  HIS148     -0.2867
     74  CB        26.6990    7.8180   57.8790 C.3   148  HIS148      0.0745
     75  CG        25.5450    8.4670   58.5860 C.ar  148  HIS148      0.0817
     76  ND1       25.5090    9.8100   58.9050 N.ar  148  HIS148     -0.2268
     77  CD2       24.3950    7.9380   59.0650 C.ar  148  HIS148      0.1154
     78  CE1       24.3830   10.0770   59.5440 C.ar  148  HIS148      0.1986
     79  NE2       23.6830    8.9610   59.6450 N.ar  148  HIS148     -0.2212
     80  N         22.0420   -0.2940   59.7040 N.3   186  THR186     -0.1218
     81  CA        21.6410    0.5230   60.8690 C.3   186  THR186      0.1862
     82  C         20.3670    1.3390   60.6260 C.2   186  THR186      0.2287
     83  O         19.8390    1.9400   61.5580 O.2   186  THR186     -0.2866
     84  CB        22.7510    1.4790   61.3850 C.3   186  THR186      0.1770
     85  OG1       23.1130    2.4470   60.3880 O.3   186  THR186     -0.2211
     86  CG2       24.0420    0.7370   61.7170 C.3   186  THR186      0.0375
     87  N         16.7650    2.0510   60.5930 N.3   188  MET188     -0.1245
     88  CA        15.7170    1.4220   61.3970 C.3   188  MET188      0.1570
     89  C         14.5840    0.8100   60.5870 C.2   188  MET188      0.2261
     90  O         13.8700   -0.0730   61.0740 O.2   188  MET188     -0.2867
     91  CB        15.1670    2.4190   62.4230 C.3   188  MET188      0.0387
     92  CG        16.1460    2.6930   63.5420 C.3   188  MET188      0.0595
     93  SD        16.4110    1.2380   64.6090 S.3   188  MET188     -0.1393
     94  CE        14.8950    1.2290   65.4920 C.3   188  MET188      0.0692
     95  N         24.3650   -0.1260   68.3520 N.3   233  ASP233     -0.1225
     96  CA        23.6910    1.1410   68.0820 C.3   233  ASP233      0.1805
     97  C         22.5060    1.3230   69.0350 C.2   233  ASP233      0.2597
     98  O         22.2530    2.4350   69.5020 O.2   233  ASP233     -0.2718
     99  CB        23.2300    1.1580   66.6120 C.3   233  ASP233      0.1424
    100  CG        22.7450    2.5160   66.1470 C.2   233  ASP233      0.3668
    101  OD1       23.3030    3.5410   66.5920 O.co2 233  ASP233     -0.2456
    102  OD2       21.8160    2.6480   65.3100 O.co2 233  ASP233     -0.2456
    103  N         21.8160    0.2210   69.3350 N.am  234  LEU234     -0.1979
    104  CA        20.6570    0.2210   70.2290 C.3   234  LEU234      0.1596
    105  C         21.0210   -0.3560   71.5910 C.2   234  LEU234      0.2287
    106  O         20.2300   -1.0750   72.2080 O.2   234  LEU234     -0.2864
    107  CB        19.5260   -0.5920   69.6030 C.3   234  LEU234      0.0297
    108  CG        18.9860   -0.0880   68.2600 C.3   234  LEU234      0.0022
    109  CD1       17.7340   -0.8870   67.8820 C.3   234  LEU234      0.0001
    110  CD2       18.6820    1.3810   68.2920 C.3   234  LEU234      0.0001
    111  N         22.0400    1.5800   74.3830 N.3   236  ASN236     -0.1240
    112  CA        21.9140    2.4500   75.5580 C.3   236  ASN236      0.1653
    113  C         20.9970    1.9390   76.6800 C.2   236  ASN236      0.2266
    114  O         21.3620    2.0680   77.8450 O.2   236  ASN236     -0.2867
    115  CB        21.7060    3.9450   75.2220 C.3   236  ASN236      0.1155
    116  CG        20.4350    4.2440   74.4630 C.2   236  ASN236      0.2627
    117  OD1       19.3760    4.4310   75.0620 O.2   236  ASN236     -0.2716
    118  ND2       20.5450    4.3780   73.1360 N.am  236  ASN236     -0.0877
    119  N         22.4550    5.1090   80.7490 N.3   244  TYR244     -0.1241
    120  CA        21.2140    5.0540   79.9780 C.3   244  TYR244      0.1605
    121  C         20.3880    6.3400   80.1280 C.2   244  TYR244      0.2264
    122  O         19.9070    6.8980   79.1430 O.2   244  TYR244     -0.2867
    123  CB        20.4010    3.8330   80.4250 C.3   244  TYR244      0.0534
    124  CG        19.0390    3.6280   79.7790 C.ar  244  TYR244     -0.0201
    125  CD1       18.7350    4.1410   78.5220 C.ar  244  TYR244     -0.0009
    126  CD2       18.0670    2.8740   80.4290 C.ar  244  TYR244     -0.0009
    127  CE1       17.5010    3.9390   77.9490 C.ar  244  TYR244      0.0417
    128  CE2       16.8280    2.6710   79.8620 C.ar  244  TYR244      0.0417
    129  CZ        16.5490    3.2030   78.6250 C.ar  244  TYR244      0.1957
    130  OH        15.3170    2.9940   78.0590 O.3   244  TYR244     -0.2866
    131  N         21.7820    9.0860   78.0110 N.3   247  TRP247     -0.1227
    132  CA        21.4810    8.8880   76.5940 C.3   247  TRP247      0.1737
    133  C         20.0240    9.2370   76.3040 C.2   247  TRP247      0.2596
    134  O         19.7170    9.8130   75.2730 O.2   247  TRP247     -0.2718
    135  CB        21.7860    7.4490   76.1600 C.3   247  TRP247      0.0564
    136  CG        23.2580    7.1760   76.0650 C.ar  247  TRP247      0.0003
    137  CD1       23.9700    6.2570   76.7730 C.ar  247  TRP247      0.0946
    138  CD2       24.1940    7.8270   75.2010 C.ar  247  TRP247      0.0152
    139  NE1       25.2960    6.2940   76.4090 N.ar  247  TRP247     -0.2442
    140  CE2       25.4640    7.2530   75.4480 C.ar  247  TRP247      0.0810
    141  CE3       24.0970    8.8560   74.2530 C.ar  247  TRP247      0.0012
    142  CZ2       26.6170    7.6640   74.7760 C.ar  247  TRP247      0.0191
    143  CZ3       25.2500    9.2610   73.5810 C.ar  247  TRP247      0.0001
    144  CH2       26.4880    8.6680   73.8530 C.ar  247  TRP247      0.0015
    145  N         19.1290    8.8980   77.2220 N.am  248  THR248     -0.1953
    146  CA        17.7150    9.2140   77.0580 C.3   248  THR248      0.1897
    147  C         17.5000   10.7260   77.0310 C.2   248  THR248      0.2313
    148  O         16.7690   11.2480   76.1910 O.2   248  THR248     -0.2863
    149  CB        16.9040    8.5520   78.1890 C.3   248  THR248      0.1794
    150  OG1       16.9670    7.1220   78.0520 O.3   248  THR248     -0.2208
    151  CG2       15.4190    8.8900   78.0820 C.3   248  THR248      0.0378
    152  N         18.8200   11.9880   73.5010 N.3   251  ILE251     -0.1245
    153  CA        17.9850   11.7200   72.3340 C.3   251  ILE251      0.1561
    154  C         16.6720   12.4980   72.4310 C.2   251  ILE251      0.2260
    155  O         16.1610   12.9760   71.4300 O.2   251  ILE251     -0.2867
    156  CB        17.7620   10.1980   72.1080 C.3   251  ILE251      0.0252
    157  CG1       17.4200    9.9620   70.6330 C.3   251  ILE251      0.0019
    158  CG2       16.7100    9.6390   73.0480 C.3   251  ILE251      0.0019
    159  CD1       17.7250    8.5870   70.1350 C.3   251  ILE251      0.0001
    160  N         15.0130   14.8850   69.6820 N.3   255  PHE255     -0.1241
    161  CA        13.6400   14.6360   69.2730 C.3   255  PHE255      0.1605
    162  C         12.7960   15.9130   69.4270 C.2   255  PHE255      0.2264
    163  O         12.0690   16.3150   68.5110 O.2   255  PHE255     -0.2867
    164  CB        13.0180   13.5270   70.1440 C.3   255  PHE255      0.0534
    165  CG        13.4290   12.1110   69.7720 C.ar  255  PHE255     -0.0203
    166  CD1       14.2370   11.8390   68.6710 C.ar  255  PHE255     -0.0042
    167  CD2       12.9840   11.0420   70.5440 C.ar  255  PHE255     -0.0042
    168  CE1       14.5910   10.5310   68.3550 C.ar  255  PHE255     -0.0003
    169  CE2       13.3410    9.7300   70.2240 C.ar  255  PHE255     -0.0003
    170  CZ        14.1350    9.4840   69.1240 C.ar  255  PHE255     -0.0000
    171  N          7.1910   10.9900   69.9160 N.3   272  MET272     -0.1245
    172  CA         8.1770   11.3420   70.9480 C.3   272  MET272      0.1570
    173  C          8.8460   12.7080   70.7640 C.2   272  MET272      0.2261
    174  O          9.7030   13.0730   71.5650 O.2   272  MET272     -0.2867
    175  CB         9.2760   10.2680   71.0650 C.3   272  MET272      0.0387
    176  CG         8.7730    8.8430   71.1910 C.3   272  MET272      0.0595
    177  SD        10.1250    7.6670   71.4140 S.3   272  MET272     -0.1393
    178  CE        10.7330    7.5460   69.7500 C.3   272  MET272      0.0692
    179  N         10.2650    5.1190   76.7700 N.3   284  GLN284     -0.1245
    180  CA        11.3990    4.2310   76.9990 C.3   284  GLN284      0.1566
    181  C         10.9140    2.8010   77.2400 C.2   284  GLN284      0.2260
    182  O         11.4990    1.8590   76.7270 O.2   284  GLN284     -0.2867
    183  CB        12.2430    4.7160   78.1840 C.3   284  GLN284      0.0367
    184  CG        13.1280    5.9190   77.8840 C.3   284  GLN284      0.0905
    185  CD        13.8340    5.8090   76.5440 C.2   284  GLN284      0.2608
    186  OE1       14.6850    4.9420   76.3530 O.2   284  GLN284     -0.2717
    187  NE2       13.4640    6.6680   75.6090 N.am  284  GLN284     -0.0878
    188  N          9.8730    1.5240   73.8970 N.3   287  PHE287     -0.1241
    189  CA        11.0320    1.2780   73.0410 C.3   287  PHE287      0.1605
    190  C         11.6890   -0.0490   73.4210 C.2   287  PHE287      0.2264
    191  O         12.0610   -0.8330   72.5520 O.2   287  PHE287     -0.2867
    192  CB        12.0360    2.4300   73.1710 C.3   287  PHE287      0.0534
    193  CG        13.2480    2.3120   72.2720 C.ar  287  PHE287     -0.0203
    194  CD1       13.1060    2.1300   70.8970 C.ar  287  PHE287     -0.0042
    195  CD2       14.5230    2.4190   72.8010 C.ar  287  PHE287     -0.0042
    196  CE1       14.2330    2.0460   70.0720 C.ar  287  PHE287     -0.0003
    197  CE2       15.6550    2.3360   71.9810 C.ar  287  PHE287     -0.0003
    198  CZ        15.4980    2.1410   70.6170 C.ar  287  PHE287     -0.0000
@<TRIPOS>BOND
     1    63    64    2
     2    63    62    1
     3    70    71    1
     4    72    73    2
     5    72    71    1
     6    61    62    1
     7    62    65    1
     8    65    66    1
     9    71    74    1
    10    68    67   ar
    11    66    67    1
    12    67    69   ar
    13    74    75    1
    14    75    76   ar
    15    75    77   ar
    16    76    78   ar
    17    77    79   ar
    18    78    79   ar
    19    80    81    1
    20    85    84    1
    21    89    90    2
    22    89    88    1
    23    87    88    1
    24    36    35    2
    25    82    81    1
    26    82    83    2
    27    81    84    1
    28    51    52    1
    29    34    35    1
    30    34    33    1
    31    34    37    1
    32    35    43   am
    33    52    53    1
    34    52    55    1
    35    84    86    1
    36    88    91    1
    37    53    54    2
    38    45    46    2
    39    45    44    1
    40    43    44    1
    41    44    47    1
    42    37    38    1
    43    91    92    1
    44    55    56    1
    45    56    57   ar
    46    56    58   ar
    47    57    59   ar
    48    58    60   ar
    49    59    60   ar
    50    49    48   ar
    51    38    40   ar
    52    38    39   ar
    53    47    48    1
    54    92    93    1
    55    40    42   ar
    56    48    50   ar
    57    39    41   ar
    58    93    94    1
    59    42    41   ar
    60   102   100   ar
    61    20    18   ar
    62    20    22   ar
    63    16    15    2
    64    17    18    1
    65    17    14    1
    66    18    19   ar
    67    22    21   ar
    68   100   101   ar
    69   100    99    1
    70    19    21   ar
    71    99    96    1
    72    15    14    1
    73    14    13    1
    74    32    30   ar
    75    32    31   ar
    76    30    28   ar
    77   109   108    1
    78    96    95    1
    79    96    97    1
    80   108   110    1
    81   108   107    1
    82    13     3   am
    83   168   166   ar
    84   168   170   ar
    85   163   162    2
    86   166   165   ar
    87    31    29   ar
    88    28    27    1
    89    28    29   ar
    90    97   103   am
    91    97    98    2
    92   170   169   ar
    93   161   162    1
    94   161   160    1
    95   161   164    1
    96   103   104    1
    97    25    26    2
    98    25    24    1
    99     8    10   ar
   100     8     6   ar
   101    27    24    1
   102    10    11   ar
   103     3     4    2
   104     3     2    1
   105   107   104    1
   106   178   177    1
   107   165   164    1
   108   165   167   ar
   109   171   172    1
   110   196   198   ar
   111   196   194   ar
   112   159   157    1
   113   169   167   ar
   114   104   105    1
   115    24    23    1
   116     5     6    1
   117     5     2    1
   118   198   197   ar
   119   157   156    1
   120     6     7   ar
   121     2     1    1
   122   173   172    1
   123   173   174    2
   124    11    12    1
   125    11     9   ar
   126   194   193   ar
   127   172   175    1
   128   175   176    1
   129   176   177    1
   130   155   154    2
   131   105   106    2
   132     7     9   ar
   133   197   195   ar
   134   156   153    1
   135   156   158    1
   136   193   195   ar
   137   193   192    1
   138   153   154    1
   139   153   152    1
   140   191   190    2
   141   189   192    1
   142   189   190    1
   143   189   188    1
   144   118   116   am
   145   143   144   ar
   146   143   141   ar
   147   144   142   ar
   148   141   138   ar
   149   111   112    1
   150   116   117    2
   151   116   115    1
   152   142   140   ar
   153   138   140   ar
   154   138   136   ar
   155   115   112    1
   156   134   133    2
   157   140   139   ar
   158   112   113    1
   159   187   185   am
   160   136   135    1
   161   136   137   ar
   162   135   132    1
   163   148   147    2
   164   133   132    1
   165   133   145   am
   166   186   185    2
   167   139   137   ar
   168   185   184    1
   169   132   131    1
   170   113   114    2
   171   182   181    2
   172   179   180    1
   173   180   181    1
   174   180   183    1
   175   147   146    1
   176   146   145    1
   177   146   149    1
   178   184   183    1
   179   127   125   ar
   180   127   129   ar
   181   150   149    1
   182   130   129    1
   183   151   149    1
   184   125   124   ar
   185   129   128   ar
   186   122   121    2
   187   124   123    1
   188   124   126   ar
   189   128   126   ar
   190   120   121    1
   191   120   123    1
   192   120   119    1
