@<TRIPOS>MOLECULE
tmp/1tbwA00.pdb
 128 119 0 0 0
SMALL
GASTEIGER

@<TRIPOS>ATOM
      1  N        150.1820   15.4300   27.2880 N.3    29  LEU29      -0.1245
      2  CA       149.0850   14.5770   27.7380 C.3    29  LEU29       0.1561
      3  C        149.4760   13.1060   27.5860 C.2    29  LEU29       0.2260
      4  O        149.1290   12.2770   28.4200 O.2    29  LEU29      -0.2867
      5  CB       147.8110   14.8730   26.9360 C.3    29  LEU29       0.0270
      6  CG       147.2080   16.2750   27.1250 C.3    29  LEU29       0.0019
      7  CD1      145.8100   16.3430   26.4830 C.3    29  LEU29       0.0001
      8  CD2      147.1250   16.5990   28.6240 C.3    29  LEU29       0.0001
      9  N        151.8760   12.1990   30.4270 N.3    32  ASN32      -0.1225
     10  CA       151.1980   11.9480   31.7030 C.3    32  ASN32       0.1785
     11  C        150.5010   10.5960   31.6950 C.2    32  ASN32       0.2597
     12  O        150.4470    9.9040   32.7140 O.2    32  ASN32      -0.2718
     13  CB       150.1740   13.0330   32.0170 C.3    32  ASN32       0.1169
     14  CG       150.8250   14.3310   32.4340 C.2    32  ASN32       0.2627
     15  OD1      151.9360   14.3190   32.9460 O.2    32  ASN32      -0.2716
     16  ND2      150.1330   15.4550   32.2340 N.am   32  ASN32      -0.0877
     17  N        149.9570   10.2240   30.5450 N.am   33  ALA33      -0.1979
     18  CA       149.2790    8.9360   30.4210 C.3    33  ALA33       0.1597
     19  C        150.3060    7.8220   30.6780 C.2    33  ALA33       0.2287
     20  O        150.0280    6.8490   31.3860 O.2    33  ALA33      -0.2864
     21  CB       148.7130    8.8050   29.0320 C.3    33  ALA33       0.0319
     22  N        151.2510    7.4290   34.3560 N.3    36  ALA36      -0.1245
     23  CA       150.1810    6.7680   35.1070 C.3    36  ALA36       0.1562
     24  C        150.1670    5.2660   34.8020 C.2    36  ALA36       0.2260
     25  O        149.8880    4.4540   35.6830 O.2    36  ALA36      -0.2867
     26  CB       148.8160    7.4040   34.7770 C.3    36  ALA36       0.0290
     27  N        153.1530    3.6450   36.6040 N.3    39  LYS39      -0.1245
     28  CA       152.8840    3.5170   38.0390 C.3    39  LYS39       0.1561
     29  C        152.0250    2.3050   38.3860 C.2    39  LYS39       0.2260
     30  O        152.3600    1.5730   39.3070 O.2    39  LYS39      -0.2867
     31  CB       152.2030    4.7670   38.6000 C.3    39  LYS39       0.0271
     32  CG       153.0950    5.9870   38.6680 C.3    39  LYS39       0.0035
     33  CD       152.3150    7.2200   39.1400 C.3    39  LYS39       0.0206
     34  CE       153.1780    8.4860   39.0260 C.3    39  LYS39       0.1093
     35  NZ       152.4720    9.7030   39.5020 N.3    39  LYS39      -0.1314
     36  N        143.5440    6.9060   29.3340 N.3    74  ASP74      -0.1239
     37  CA       144.5680    5.9220   29.6840 C.3    74  ASP74       0.1674
     38  C        143.9770    5.0130   30.7670 C.2    74  ASP74       0.2266
     39  O        143.0830    5.4280   31.5070 O.2    74  ASP74      -0.2867
     40  CB       145.8340    6.6160   30.2270 C.3    74  ASP74       0.1410
     41  CG       145.6170    7.2480   31.6130 C.2    74  ASP74       0.3668
     42  OD1      145.4320    6.4990   32.6010 O.co2  74  ASP74      -0.2456
     43  OD2      145.6280    8.4940   31.7150 O.co2  74  ASP74      -0.2456
     44  N        147.0430    4.3900   36.6170 N.3    77  VAL77      -0.1231
     45  CA       146.7280    4.4140   38.0500 C.3    77  VAL77       0.1692
     46  C        145.4780    5.2230   38.4480 C.2    77  VAL77       0.2593
     47  O        144.7840    4.8800   39.4070 O.2    77  VAL77      -0.2718
     48  CB       147.9790    4.9300   38.8410 C.3    77  VAL77       0.0266
     49  CG1      148.1580    6.4470   38.6270 C.3    77  VAL77       0.0020
     50  CG2      147.8820    4.5800   40.3180 C.3    77  VAL77       0.0020
     51  N        145.1860    6.2920   37.7170 N.am   78  GLY78      -0.1942
     52  CA       144.0230    7.0990   38.0520 C.3    78  GLY78       0.2014
     53  C        144.3040    8.0470   39.2080 C.2    78  GLY78       0.2638
     54  O        145.3960    8.0310   39.7650 O.2    78  GLY78      -0.2714
     55  N        143.3220    8.8700   39.5650 N.am   79  MET79      -0.1976
     56  CA       143.4550    9.8340   40.6590 C.3    79  MET79       0.1605
     57  C        142.2390    9.8300   41.5960 C.2    79  MET79       0.2287
     58  O        141.0890    9.7770   41.1490 O.2    79  MET79      -0.2864
     59  CB       143.6170   11.2530   40.1010 C.3    79  MET79       0.0413
     60  CG       144.9810   11.5850   39.5160 C.3    79  MET79       0.0598
     61  SD       145.0010   13.1950   38.6800 S.3    79  MET79      -0.1393
     62  CE       144.2940   12.7460   37.0820 C.3    79  MET79       0.0692
     63  N        146.3890   17.8670   42.9640 N.3    87  ASN87      -0.1225
     64  CA       147.2640   17.7920   41.7920 C.3    87  ASN87       0.1785
     65  C        146.8310   18.6010   40.5700 C.2    87  ASN87       0.2597
     66  O        147.6730   19.1200   39.8370 O.2    87  ASN87      -0.2718
     67  CB       147.4610   16.3340   41.3600 C.3    87  ASN87       0.1169
     68  CG       148.0360   15.4710   42.4610 C.2    87  ASN87       0.2627
     69  OD1      148.2970   15.9490   43.5620 O.2    87  ASN87      -0.2716
     70  ND2      148.2280   14.1860   42.1700 N.am   87  ASN87      -0.0877
     71  N        145.5290   18.6950   40.3310 N.am   88  LEU88      -0.1980
     72  CA       145.0400   19.4420   39.1790 C.3    88  LEU88       0.1596
     73  C        144.4570   20.7850   39.5970 C.2    88  LEU88       0.2287
     74  O        144.6960   21.8030   38.9450 O.2    88  LEU88      -0.2864
     75  CB       143.9690   18.6390   38.4380 C.3    88  LEU88       0.0297
     76  CG       144.3340   17.2640   37.8680 C.3    88  LEU88       0.0022
     77  CD1      143.1380   16.7350   37.0720 C.3    88  LEU88       0.0001
     78  CD2      145.5680   17.3600   36.9760 C.3    88  LEU88       0.0001
     79  N        147.0340   23.5400   40.0790 N.3    91  ILE91      -0.1245
     80  CA       147.6930   23.7990   38.8040 C.3    91  ILE91       0.1561
     81  C        146.7880   24.5360   37.8130 C.2    91  ILE91       0.2260
     82  O        147.2610   25.3460   37.0170 O.2    91  ILE91      -0.2867
     83  CB       148.1680   22.4810   38.1370 C.3    91  ILE91       0.0252
     84  CG1      149.3790   21.9200   38.8830 C.3    91  ILE91       0.0019
     85  CG2      148.5010   22.7250   36.6590 C.3    91  ILE91       0.0019
     86  CD1      150.5770   22.8570   38.9020 C.3    91  ILE91       0.0001
     87  N        153.4480   20.2610   30.8110 N.3   123  GLY123     -0.1210
     88  CA       152.5310   19.6590   31.7570 C.3   123  GLY123      0.1956
     89  C        151.0570   19.7780   31.4030 C.2   123  GLY123      0.2612
     90  O        150.6690   20.2000   30.2990 O.2   123  GLY123     -0.2717
     91  N        150.2350   19.3790   32.3660 N.am  124  PHE124     -0.1962
     92  CA       148.7920   19.3870   32.2370 C.3   124  PHE124      0.1771
     93  C        148.2550   20.7440   31.7590 C.2   124  PHE124      0.2619
     94  O        147.3750   20.8000   30.8990 O.2   124  PHE124     -0.2715
     95  CB       148.1870   19.0140   33.5880 C.3   124  PHE124      0.0574
     96  CG       146.6930   19.0530   33.6160 C.ar  124  PHE124     -0.0200
     97  CD1      145.9470   18.0250   33.0470 C.ar  124  PHE124     -0.0042
     98  CD2      146.0270   20.1130   34.2320 C.ar  124  PHE124     -0.0042
     99  CE1      144.5590   18.0440   33.0960 C.ar  124  PHE124     -0.0003
    100  CE2      144.6390   20.1470   34.2850 C.ar  124  PHE124     -0.0003
    101  CZ       143.9000   19.1060   33.7160 C.ar  124  PHE124     -0.0000
    102  N        148.7940   21.8310   32.3050 N.am  125  TYR125     -0.1974
    103  CA       148.3550   23.1710   31.9220 C.3   125  TYR125      0.1639
    104  C        148.4780   23.4540   30.4170 C.2   125  TYR125      0.2290
    105  O        147.7140   24.2320   29.8700 O.2   125  TYR125     -0.2864
    106  CB       149.1330   24.2370   32.6990 C.3   125  TYR125      0.0560
    107  CG       148.4090   25.5640   32.7490 C.ar  125  TYR125     -0.0198
    108  CD1      147.3830   25.7830   33.6770 C.ar  125  TYR125     -0.0009
    109  CD2      148.7110   26.5890   31.8390 C.ar  125  TYR125     -0.0009
    110  CE1      146.6730   26.9860   33.7000 C.ar  125  TYR125      0.0417
    111  CE2      148.0020   27.7980   31.8510 C.ar  125  TYR125      0.0417
    112  CZ       146.9850   27.9890   32.7850 C.ar  125  TYR125      0.1957
    113  OH       146.2710   29.1710   32.8090 O.3   125  TYR125     -0.2866
    114  N        142.0740    7.2730   33.5870 N.3   170  THR170     -0.1218
    115  CA       141.6920    8.6670   33.4390 C.3   170  THR170      0.1862
    116  C        141.4120    9.0130   31.9890 C.2   170  THR170      0.2287
    117  O        142.0700    8.5060   31.0910 O.2   170  THR170     -0.2866
    118  CB       142.8470    9.6000   33.8930 C.3   170  THR170      0.1770
    119  OG1      143.2130    9.3060   35.2430 O.3   170  THR170     -0.2211
    120  CG2      142.4360   11.0560   33.7630 C.3   170  THR170      0.0375
    121  N        141.0300   12.5040   29.6500 N.3   172  ILE172     -0.1245
    122  CA       141.1750   13.9530   29.6540 C.3   172  ILE172      0.1561
    123  C        140.2820   14.3820   28.4800 C.2   172  ILE172      0.2260
    124  O        140.5040   13.9540   27.3360 O.2   172  ILE172     -0.2867
    125  CB       142.6130   14.4390   29.3370 C.3   172  ILE172      0.0252
    126  CG1      143.6490   13.7590   30.2490 C.3   172  ILE172      0.0019
    127  CG2      142.6620   15.9580   29.4780 C.3   172  ILE172      0.0019
    128  CD1      143.4680   13.9930   31.7400 C.3   172  ILE172      0.0001
@<TRIPOS>BOND
     1     7     6    1
     2     5     6    1
     3     5     2    1
     4     6     8    1
     5     1     2    1
     6   124   123    2
     7     3     2    1
     8     3     4    2
     9   123   122    1
    10    21    18    1
    11    36    37    1
    12   125   127    1
    13   125   122    1
    14   125   126    1
    15   121   122    1
    16    37    40    1
    17    37    38    1
    18   105   104    2
    19    40    41    1
    20   126   128    1
    21    90    89    2
    22   104   103    1
    23    18    17    1
    24    18    19    1
    25     9    10    1
    26    17    11   am
    27    19    20    2
    28    38    39    2
    29    87    88    1
    30    94    93    2
    31   117   116    2
    32    89    88    1
    33    89    91   am
    34    41    43   ar
    35    41    42   ar
    36    11    10    1
    37    11    12    2
    38    10    13    1
    39    93    92    1
    40    93   102   am
    41   109   111   ar
    42   109   107   ar
    43   111   112   ar
    44   103   102    1
    45   103   106    1
    46   116   115    1
    47    13    14    1
    48    16    14   am
    49    92    91    1
    50    92    95    1
    51    14    15    2
    52   106   107    1
    53   107   108   ar
    54   112   113    1
    55   112   110   ar
    56    97    99   ar
    57    97    96   ar
    58    99   101   ar
    59   115   114    1
    60   115   118    1
    61    95    96    1
    62    96    98   ar
    63   108   110   ar
    64   101   100   ar
    65   120   118    1
    66   118   119    1
    67    98   100   ar
    68    22    23    1
    69    26    23    1
    70    24    23    1
    71    24    25    2
    72    27    28    1
    73    44    45    1
    74    85    83    1
    75    78    76    1
    76    82    81    2
    77    77    76    1
    78    62    61    1
    79    51    52    1
    80    51    46   am
    81    81    80    1
    82    76    75    1
    83    28    29    1
    84    28    31    1
    85    45    46    1
    86    45    48    1
    87    52    53    1
    88    83    80    1
    89    83    84    1
    90    29    30    2
    91    75    72    1
    92    46    47    2
    93    31    32    1
    94    49    48    1
    95    32    33    1
    96    61    60    1
    97    80    79    1
    98    48    50    1
    99    84    86    1
   100    74    73    2
   101    34    33    1
   102    34    35    1
   103    72    73    1
   104    72    71    1
   105    53    55   am
   106    53    54    2
   107    60    59    1
   108    55    56    1
   109    66    65    2
   110    59    56    1
   111    71    65   am
   112    65    64    1
   113    56    57    1
   114    58    57    2
   115    67    64    1
   116    67    68    1
   117    64    63    1
   118    70    68   am
   119    68    69    2
