@<TRIPOS>MOLECULE
tmp/1tbwB00.pdb
 111 104 0 0 0
SMALL
GASTEIGER

@<TRIPOS>ATOM
      1  N        111.6090   22.3180   51.7770 N.3    26  LEU26      -0.1245
      2  CA       111.8790   21.8400   50.4280 C.3    26  LEU26       0.1561
      3  C        110.5760   21.8250   49.6290 C.2    26  LEU26       0.2260
      4  O        110.5300   22.3260   48.5030 O.2    26  LEU26      -0.2867
      5  CB       112.4940   20.4360   50.4660 C.3    26  LEU26       0.0270
      6  CG       113.8850   20.3610   51.1050 C.3    26  LEU26       0.0019
      7  CD1      114.3450   18.9200   51.1340 C.3    26  LEU26       0.0001
      8  CD2      114.8720   21.2280   50.3270 C.3    26  LEU26       0.0001
      9  N        109.7000   25.0730   48.5380 N.3    29  ASN29      -0.1225
     10  CA       110.4720   25.4670   47.3740 C.3    29  ASN29       0.1785
     11  C        110.0250   24.7900   46.0830 C.2    29  ASN29       0.2597
     12  O        110.0650   25.4020   45.0200 O.2    29  ASN29      -0.2718
     13  CB       111.9620   25.2360   47.6260 C.3    29  ASN29       0.1169
     14  CG       112.5510   26.2980   48.5300 C.2    29  ASN29       0.2627
     15  OD1      111.9120   27.3240   48.7770 O.2    29  ASN29      -0.2716
     16  ND2      113.7670   26.0720   49.0200 N.am   29  ASN29      -0.0877
     17  N        109.6000   23.5340   46.1810 N.am   30  ALA30      -0.1979
     18  CA       109.1250   22.8100   45.0200 C.3    30  ALA30       0.1597
     19  C        107.8400   23.4890   44.5370 C.2    30  ALA30       0.2287
     20  O        107.6760   23.7600   43.3450 O.2    30  ALA30      -0.2864
     21  CB       108.8410   21.3760   45.3820 C.3    30  ALA30       0.0319
     22  N        108.5230   26.5930   42.6020 N.3    33  ALA33      -0.1245
     23  CA       109.1080   26.2890   41.3030 C.3    33  ALA33       0.1562
     24  C        108.0100   25.8880   40.3340 C.2    33  ALA33       0.2260
     25  O        108.0310   26.2640   39.1640 O.2    33  ALA33      -0.2867
     26  CB       110.1390   25.1570   41.4370 C.3    33  ALA33       0.0290
     27  N        111.0240   17.8370   41.8280 N.3    71  ASP71      -0.1239
     28  CA       109.8840   18.6010   41.3390 C.3    71  ASP71       0.1674
     29  C        110.0240   18.8420   39.8310 C.2    71  ASP71       0.2266
     30  O        111.1430   18.9020   39.3070 O.2    71  ASP71      -0.2867
     31  CB       109.7720   19.9420   42.0690 C.3    71  ASP71       0.1410
     32  CG       110.9040   20.8860   41.7420 C.2    71  ASP71       0.3668
     33  OD1      111.6920   21.2170   42.6620 O.co2  71  ASP71      -0.2456
     34  OD2      111.0010   21.3100   40.5630 O.co2  71  ASP71      -0.2456
     35  N        110.0990   24.9350   37.3920 N.3    74  VAL74      -0.1231
     36  CA       110.8900   25.7080   36.4370 C.3    74  VAL74       0.1692
     37  C        112.3660   25.2960   36.2670 C.2    74  VAL74       0.2593
     38  O        112.9110   25.3880   35.1640 O.2    74  VAL74      -0.2718
     39  CB       110.8300   27.2280   36.7800 C.3    74  VAL74       0.0266
     40  CG1      111.6460   27.5350   38.0280 C.3    74  VAL74       0.0020
     41  CG2      111.3150   28.0430   35.6130 C.3    74  VAL74       0.0020
     42  N        113.0100   24.8510   37.3440 N.am   75  GLY75      -0.1942
     43  CA       114.4050   24.4490   37.2590 C.3    75  GLY75       0.2014
     44  C        115.3380   25.6300   37.4070 C.2    75  GLY75       0.2638
     45  O        114.8830   26.7650   37.5390 O.2    75  GLY75      -0.2714
     46  N        116.6430   25.3600   37.3890 N.am   76  MET76      -0.1976
     47  CA       117.6800   26.3860   37.5070 C.3    76  MET76       0.1605
     48  C        118.8140   26.1260   36.5070 C.2    76  MET76       0.2287
     49  O        119.1980   24.9790   36.2500 O.2    76  MET76      -0.2864
     50  CB       118.2820   26.4110   38.9210 C.3    76  MET76       0.0413
     51  CG       117.3790   26.9650   40.0300 C.3    76  MET76       0.0598
     52  SD       118.1470   26.7930   41.6860 S.3    76  MET76      -0.1393
     53  CE       117.5610   25.1510   42.1250 C.3    76  MET76       0.0692
     54  N        121.6370   31.2700   43.3170 N.3    84  ASN84      -0.1225
     55  CA       120.5410   31.0420   44.2520 C.3    84  ASN84       0.1785
     56  C        120.8300   30.0790   45.4030 C.2    84  ASN84       0.2597
     57  O        120.0770   30.0410   46.3780 O.2    84  ASN84      -0.2718
     58  CB       119.3110   30.5430   43.4910 C.3    84  ASN84       0.1169
     59  CG       118.8930   31.4770   42.3660 C.2    84  ASN84       0.2627
     60  OD1      118.0700   31.1140   41.5220 O.2    84  ASN84      -0.2716
     61  ND2      119.4490   32.6820   42.3500 N.am   84  ASN84      -0.0877
     62  N        121.9040   29.3010   45.3000 N.am   85  LEU85      -0.1980
     63  CA       122.2330   28.3410   46.3530 C.3    85  LEU85       0.1596
     64  C        123.5350   28.6790   47.0690 C.2    85  LEU85       0.2287
     65  O        124.1590   29.7060   46.7890 O.2    85  LEU85      -0.2864
     66  CB       122.3180   26.9300   45.7590 C.3    85  LEU85       0.0297
     67  CG       121.0760   26.4690   44.9920 C.3    85  LEU85       0.0022
     68  CD1      121.3160   25.0970   44.3960 C.3    85  LEU85       0.0001
     69  CD2      119.8790   26.4490   45.9210 C.3    85  LEU85       0.0001
     70  N        114.2920   28.0420   54.6790 N.3    97  GLY97      -0.1210
     71  CA       115.1360   28.1780   53.5080 C.3    97  GLY97       0.1956
     72  C        115.8550   26.8930   53.1320 C.2    97  GLY97       0.2612
     73  O        115.8830   25.9230   53.8900 O.2    97  GLY97      -0.2717
     74  N        116.4390   26.9030   51.9400 N.am   98  PHE98      -0.1962
     75  CA       117.1720   25.7640   51.4000 C.3    98  PHE98       0.1771
     76  C        118.1740   25.1840   52.4070 C.2    98  PHE98       0.2619
     77  O        118.2110   23.9780   52.6370 O.2    98  PHE98      -0.2715
     78  CB       117.8990   26.1990   50.1190 C.3    98  PHE98       0.0574
     79  CG       118.7320   25.1200   49.4940 C.ar   98  PHE98      -0.0200
     80  CD1      118.1470   23.9400   49.0500 C.ar   98  PHE98      -0.0042
     81  CD2      120.1060   25.2790   49.3580 C.ar   98  PHE98      -0.0042
     82  CE1      118.9210   22.9280   48.4790 C.ar   98  PHE98      -0.0003
     83  CE2      120.8860   24.2740   48.7870 C.ar   98  PHE98      -0.0003
     84  CZ       120.2890   23.0960   48.3490 C.ar   98  PHE98      -0.0000
     85  N        118.9670   26.0540   53.0190 N.am   99  TYR99      -0.1974
     86  CA       119.9720   25.6170   53.9770 C.3    99  TYR99       0.1639
     87  C        119.4720   24.8470   55.1890 C.2    99  TYR99       0.2290
     88  O        120.2760   24.3040   55.9420 O.2    99  TYR99      -0.2864
     89  CB       120.8200   26.8130   54.4070 C.3    99  TYR99       0.0560
     90  CG       121.8520   27.1600   53.3600 C.ar   99  TYR99      -0.0198
     91  CD1      123.1820   26.7560   53.5020 C.ar   99  TYR99      -0.0009
     92  CD2      121.4820   27.8040   52.1770 C.ar   99  TYR99      -0.0009
     93  CE1      124.1170   26.9810   52.4840 C.ar   99  TYR99       0.0417
     94  CE2      122.4090   28.0310   51.1520 C.ar   99  TYR99       0.0417
     95  CZ       123.7210   27.6180   51.3090 C.ar   99  TYR99       0.1957
     96  OH       124.6380   27.8370   50.2980 O.3    99  TYR99      -0.2866
     97  N        113.7980   19.9930   39.1980 N.3   144  THR144     -0.1218
     98  CA       114.8990   19.8950   40.1390 C.3   144  THR144      0.1862
     99  C        114.7620   18.7620   41.1540 C.2   144  THR144      0.2287
    100  O        113.6720   18.4990   41.6650 O.2   144  THR144     -0.2866
    101  CB       115.0300   21.2150   40.9230 C.3   144  THR144      0.1770
    102  OG1      115.2010   22.3020   40.0010 O.3   144  THR144     -0.2211
    103  CG2      116.2090   21.1630   41.8900 C.3   144  THR144      0.0375
    104  N        116.4230   17.4190   44.7470 N.3   146  ILE146     -0.1245
    105  CA       117.2540   17.7470   45.8930 C.3   146  ILE146      0.1561
    106  C        117.6230   16.3930   46.5080 C.2   146  ILE146      0.2260
    107  O        116.7510   15.6520   46.9780 O.2   146  ILE146     -0.2867
    108  CB       116.4850   18.5920   46.9400 C.3   146  ILE146      0.0252
    109  CG1      115.7380   19.7480   46.2550 C.3   146  ILE146      0.0019
    110  CG2      117.4680   19.1730   47.9580 C.3   146  ILE146      0.0019
    111  CD1      116.6310   20.8940   45.7520 C.3   146  ILE146      0.0001
@<TRIPOS>BOND
     1    38    37    2
     2    41    39    1
     3    49    48    2
     4    37    36    1
     5    37    42   am
     6    36    39    1
     7    36    35    1
     8    48    47    1
     9    39    40    1
    10    43    42    1
    11    43    44    1
    12    46    44   am
    13    46    47    1
    14    44    45    2
    15    47    50    1
    16    50    51    1
    17    25    24    2
    18    97    98    1
    19    30    29    2
    20    29    28    1
    21   102   101    1
    22    51    52    1
    23    98   101    1
    24    98    99    1
    25    24    23    1
    26    34    32   ar
    27   101   103    1
    28    99   100    2
    29    23    26    1
    30    23    22    1
    31    28    27    1
    32    28    31    1
    33    60    59    2
    34    52    53    1
    35    32    31    1
    36    32    33   ar
    37    61    59   am
    38    59    58    1
    39    54    55    1
    40    20    19    2
    41    58    55    1
    42    55    56    1
    43    68    67    1
    44    19    18    1
    45   104   105    1
    46    67    66    1
    47    67    69    1
    48    18    21    1
    49    18    17    1
    50    12    11    2
    51    62    56   am
    52    62    63    1
    53    56    57    2
    54   111   109    1
    55    66    63    1
    56   105   106    1
    57   105   108    1
    58    11    17   am
    59    11    10    1
    60   109   108    1
    61    63    64    1
    62   106   107    2
    63    65    64    2
    64   108   110    1
    65    10    13    1
    66    10     9    1
    67    13    14    1
    68    84    82   ar
    69    84    83   ar
    70    82    80   ar
    71     4     3    2
    72    14    15    2
    73    14    16   am
    74    83    81   ar
    75    80    79   ar
    76    81    79   ar
    77    79    78    1
    78     3     2    1
    79    78    75    1
    80    96    95    1
    81     8     6    1
    82     2     5    1
    83     2     1    1
    84     5     6    1
    85     6     7    1
    86    94    95   ar
    87    94    92   ar
    88    95    93   ar
    89    75    74    1
    90    75    76    1
    91    74    72   am
    92    92    90   ar
    93    76    77    2
    94    76    85   am
    95    93    91   ar
    96    85    86    1
    97    72    71    1
    98    72    73    2
    99    90    91   ar
   100    90    89    1
   101    71    70    1
   102    86    89    1
   103    86    87    1
   104    87    88    2
