@<TRIPOS>MOLECULE
tmp/1tbzB01.pdb
 239 240 0 0 0
SMALL
GASTEIGER

@<TRIPOS>ATOM
      1  N         14.4310   -7.7670    9.2340 N.3    27  LEU27      -0.1231
      2  CA        15.5350   -8.1410   10.1300 C.3    27  LEU27       0.1693
      3  C         15.1210   -7.8970   11.6020 C.2    27  LEU27       0.2592
      4  O         14.9920   -8.8680   12.3460 O.2    27  LEU27      -0.2718
      5  CB        16.8260   -7.5050    9.7050 C.3    27  LEU27       0.0284
      6  CG        18.0620   -7.6570   10.5600 C.3    27  LEU27       0.0019
      7  CD1       18.9280   -8.8500   10.1090 C.3    27  LEU27       0.0001
      8  CD2       18.9800   -6.4380   10.4680 C.3    27  LEU27       0.0001
      9  N         14.7230   -6.6690   11.9550 N.am   28  CYS28      -0.1970
     10  CA        14.3860   -6.2630   13.3250 C.3    28  CYS28       0.1712
     11  C         13.6440   -4.9230   13.2760 C.2    28  CYS28       0.2296
     12  O         13.5030   -4.2950   12.2230 O.2    28  CYS28      -0.2864
     13  CB        15.7720   -5.9810   14.0230 C.3    28  CYS28       0.0983
     14  SG        16.6830   -7.4440   14.7230 S.3    28  CYS28      -0.0798
     15  N         22.5110   -6.8940   18.8120 N.3    43  HIS43      -0.1226
     16  CA        22.4220   -8.2840   18.3110 C.3    43  HIS43       0.1752
     17  C         21.7020   -8.4020   16.9710 C.2    43  HIS43       0.2596
     18  O         21.6830   -9.5120   16.3160 O.2    43  HIS43      -0.2718
     19  CB        21.8120   -9.2010   19.3880 C.3    43  HIS43       0.0759
     20  CG        20.3220   -9.2140   19.3900 C.ar   43  HIS43       0.0818
     21  ND1       19.5390   -8.5760   20.3360 N.ar   43  HIS43      -0.2268
     22  CD2       19.4730   -9.7700   18.4710 C.ar   43  HIS43       0.1154
     23  CE1       18.2560   -8.7830   20.0810 C.ar   43  HIS43       0.1986
     24  NE2       18.1890   -9.4650   18.9660 N.ar   43  HIS43      -0.2212
     25  N         21.0310   -7.3510   16.5000 N.am   44  CYS44      -0.1970
     26  CA        20.3570   -7.3990   15.1740 C.3    44  CYS44       0.1712
     27  C         21.3780   -7.3320   14.0420 C.2    44  CYS44       0.2296
     28  O         21.1580   -7.7540   12.8750 O.2    44  CYS44      -0.2864
     29  CB        19.3720   -6.2130   15.0400 C.3    44  CYS44       0.0983
     30  SG        17.9520   -6.4220   16.0520 S.3    44  CYS44      -0.0798
     31  N         25.7740  -11.1540   15.7110 N.3    47  TYR47      -0.1241
     32  CA        25.4250  -12.3190   16.5110 C.3    47  TYR47       0.1605
     33  C         26.0380  -13.6360   15.9400 C.2    47  TYR47       0.2264
     34  O         25.3360  -14.4400   15.3150 O.2    47  TYR47      -0.2867
     35  CB        23.8830  -12.4630   16.6160 C.3    47  TYR47       0.0534
     36  CG        23.5750  -13.4590   17.7090 C.ar   47  TYR47      -0.0201
     37  CD1       24.0140  -13.0640   18.9900 C.ar   47  TYR47      -0.0009
     38  CD2       23.0330  -14.7090   17.5210 C.ar   47  TYR47      -0.0009
     39  CE1       23.8250  -13.8610   20.1320 C.ar   47  TYR47       0.0417
     40  CE2       22.8060  -15.5270   18.6560 C.ar   47  TYR47       0.0417
     41  CZ        23.2190  -15.1220   19.9350 C.ar   47  TYR47       0.1957
     42  OH        23.0560  -15.9210   21.0200 O.3    47  TYR47      -0.2866
     43  N         24.9220  -17.3450   15.4830 N.3    50  TRP50      -0.1241
     44  CA        23.9130  -17.6000   14.4620 C.3    50  TRP50       0.1605
     45  C         24.4900  -17.1660   13.0970 C.2    50  TRP50       0.2264
     46  O         23.7010  -17.1190   12.1470 O.2    50  TRP50      -0.2867
     47  CB        22.6070  -16.9380   14.7420 C.3    50  TRP50       0.0550
     48  CG        21.7810  -17.4740   15.8540 C.ar   50  TRP50       0.0003
     49  CD1       21.8920  -18.6340   16.5840 C.ar   50  TRP50       0.0946
     50  CD2       20.5820  -16.8180   16.3160 C.ar   50  TRP50       0.0152
     51  NE1       20.8320  -18.7270   17.4960 N.ar   50  TRP50      -0.2442
     52  CE2       20.0310  -17.6320   17.3410 C.ar   50  TRP50       0.0810
     53  CE3       19.9670  -15.6210   15.9510 C.ar   50  TRP50       0.0012
     54  CZ2       18.8790  -17.2530   18.0000 C.ar   50  TRP50       0.0191
     55  CZ3       18.8140  -15.2640   16.6260 C.ar   50  TRP50       0.0001
     56  CH2       18.2580  -16.0540   17.6330 C.ar   50  TRP50       0.0015
     57  N         25.4570  -14.2140   12.2950 N.3    52  LYS52      -0.1245
     58  CA        25.0350  -12.8590   11.9140 C.3    52  LYS52       0.1561
     59  C         26.1420  -11.8080   12.0440 C.2    52  LYS52       0.2260
     60  O         26.6020  -11.5990   13.1710 O.2    52  LYS52      -0.2867
     61  CB        23.9030  -12.3040   12.7900 C.3    52  LYS52       0.0271
     62  CG        22.6510  -13.1790   12.7250 C.3    52  LYS52       0.0035
     63  CD        22.3280  -13.5330   11.3000 C.3    52  LYS52       0.0206
     64  CE        21.0020  -14.2200   11.1110 C.3    52  LYS52       0.1093
     65  NZ        20.4890  -14.8190   12.3650 N.3    52  LYS52      -0.1314
     66  N         28.0710  -10.5080   23.2360 N.3    92  TRP92      -0.1241
     67  CA        27.2890  -11.5010   22.4790 C.3    92  TRP92       0.1605
     68  C         27.6340  -12.9390   22.9420 C.2    92  TRP92       0.2264
     69  O         26.8490  -13.8430   22.5540 O.2    92  TRP92      -0.2867
     70  CB        27.5200  -11.3940   20.9920 C.3    92  TRP92       0.0550
     71  CG        28.9640  -11.4790   20.6110 C.ar   92  TRP92       0.0003
     72  CD1       29.8140  -10.4350   20.3320 C.ar   92  TRP92       0.0946
     73  CD2       29.7200  -12.6890   20.4090 C.ar   92  TRP92       0.0152
     74  NE1       31.0590  -10.9110   20.0290 N.ar   92  TRP92      -0.2442
     75  CE2       31.0400  -12.2950   20.0810 C.ar   92  TRP92       0.0810
     76  CE3       29.3990  -14.0640   20.5330 C.ar   92  TRP92       0.0012
     77  CZ2       32.0350  -13.2310   19.7610 C.ar   92  TRP92       0.0191
     78  CZ3       30.3920  -14.9830   20.2980 C.ar   92  TRP92       0.0001
     79  CH2       31.6740  -14.5810   19.9190 C.ar   92  TRP92       0.0015
     80  N         27.8020  -14.1090   26.0740 N.3    94  GLU94      -0.1231
     81  CA        27.0620  -14.6710   27.2300 C.3    94  GLU94       0.1699
     82  C         25.6650  -14.1520   27.4130 C.2    94  GLU94       0.2592
     83  O         24.6540  -14.9300   27.4050 O.2    94  GLU94      -0.2718
     84  CB        27.8850  -14.3960   28.4620 C.3    94  GLU94       0.0402
     85  CG        27.5260  -14.5650   29.8950 C.3    94  GLU94       0.1161
     86  CD        28.4030  -13.6790   30.8130 C.2    94  GLU94       0.3649
     87  OE1       29.5020  -13.2130   30.4780 O.co2  94  GLU94      -0.2457
     88  OE2       27.8140  -13.4930   31.9080 O.co2  94  GLU94      -0.2457
     89  N         25.5100  -12.8300   27.7080 N.am   95  ASN95      -0.1960
     90  CA        24.1140  -12.4230   28.0070 C.3    95  ASN95       0.1819
     91  C         23.5380  -11.2970   27.2070 C.2    95  ASN95       0.2621
     92  O         22.4760  -10.8070   27.6990 O.2    95  ASN95      -0.2715
     93  CB        24.0790  -12.3000   29.5370 C.3    95  ASN95       0.1195
     94  CG        25.0870  -11.2860   30.0320 C.2    95  ASN95       0.2630
     95  OD1       25.8090  -10.7730   29.1570 O.2    95  ASN95      -0.2716
     96  ND2       25.0680  -10.8980   31.2980 N.am   95  ASN95      -0.0877
     97  N         24.1470  -10.8220   26.1130 N.am   96  LEU96      -0.1977
     98  CA        23.5670   -9.6770   25.3750 C.3    96  LEU96       0.1596
     99  C         23.6200   -8.3640   26.2080 C.2    96  LEU96       0.2287
    100  O         22.6640   -7.5120   26.2370 O.2    96  LEU96      -0.2864
    101  CB        22.1100  -10.0930   24.9870 C.3    96  LEU96       0.0297
    102  CG        21.8720  -10.3780   23.5470 C.3    96  LEU96       0.0022
    103  CD1       22.9240  -11.3980   22.9780 C.3    96  LEU96       0.0001
    104  CD2       20.4610  -10.8740   23.2430 C.3    96  LEU96       0.0001
    105  N         19.9060  -17.0040   33.0190 N.3   171  ILE171     -0.1245
    106  CA        20.8820  -16.0510   32.4160 C.3   171  ILE171      0.1561
    107  C         21.2600  -14.9500   33.4750 C.2   171  ILE171      0.2260
    108  O         20.4600  -14.5330   34.3290 O.2   171  ILE171     -0.2867
    109  CB        20.2340  -15.3170   31.1690 C.3   171  ILE171      0.0252
    110  CG1       19.7820  -16.4390   30.1710 C.3   171  ILE171      0.0019
    111  CG2       21.1300  -14.2670   30.4790 C.3   171  ILE171      0.0019
    112  CD1       21.0120  -17.4120   29.9820 C.3   171  ILE171      0.0001
    113  N          3.6440   -9.8350   25.5450 N.3   191  ASP191     -0.1225
    114  CA         5.1060   -9.8690   25.4760 C.3   191  ASP191      0.1805
    115  C          5.4980   -9.4550   24.0230 C.2   191  ASP191      0.2598
    116  O          4.6070   -9.4870   23.1420 O.2   191  ASP191     -0.2718
    117  CB         5.5910  -11.2810   25.7900 C.3   191  ASP191      0.1424
    118  CG         7.0550  -11.4150   26.1620 C.2   191  ASP191      0.3668
    119  OD1        7.8250  -10.4320   26.3520 O.co2 191  ASP191     -0.2456
    120  OD2        7.4680  -12.6310   26.2520 O.co2 191  ASP191     -0.2456
    121  N          6.7350   -9.1980   23.8680 N.am  192  ALA192     -0.1966
    122  CA         7.4660   -9.0190   22.6440 C.3   192  ALA192      0.1728
    123  C          7.7360  -10.5260   22.2610 C.2   192  ALA192      0.2616
    124  O          7.4140  -11.4000   23.0970 O.2   192  ALA192     -0.2715
    125  CB         8.8170   -8.2470   22.7620 C.3   192  ALA192      0.0334
    126  N          8.2910  -10.7390   21.1160 N.am  193  CYS193     -0.1954
    127  CA         8.5370  -12.0910   20.6270 C.3   193  CYS193      0.1843
    128  C          9.5300  -11.9570   19.4730 C.2   193  CYS193      0.2625
    129  O          9.7670  -10.8180   19.0330 O.2   193  CYS193     -0.2714
    130  CB         7.1870  -12.7690   20.3000 C.3   193  CYS193      0.0997
    131  SG         7.3220  -14.6150   20.1050 S.3   193  CYS193     -0.0797
    132  N         10.1860  -13.0520   19.1140 N.am  194  GLU194     -0.1963
    133  CA        11.1530  -13.0610   18.0170 C.3   194  GLU194      0.1733
    134  C         10.6320  -12.2390   16.8480 C.2   194  GLU194      0.2616
    135  O          9.4390  -12.3700   16.4680 O.2   194  GLU194     -0.2715
    136  CB        11.3910  -14.5270   17.5870 C.3   194  GLU194      0.0429
    137  CG        12.2600  -15.3560   18.5390 C.3   194  GLU194      0.1163
    138  CD        11.9810  -15.7070   19.9340 C.2   194  GLU194      0.3649
    139  OE1       11.2380  -16.5340   20.4060 O.co2 194  GLU194     -0.2457
    140  OE2       12.6800  -15.1380   20.8480 O.co2 194  GLU194     -0.2457
    141  N         11.4510  -11.3730   16.2980 N.am  195  GLY195     -0.1955
    142  CA        11.1800  -10.4430   15.2200 C.3   195  GLY195      0.1869
    143  C         10.9210   -8.9970   15.6620 C.2   195  GLY195      0.2309
    144  O         11.1130   -8.1100   14.8220 O.2   195  GLY195     -0.2863
    145  N         12.7090   -7.6500   18.1990 N.3   197  SER197     -0.1217
    146  CA        14.0200   -7.2190   18.5600 C.3   197  SER197      0.1889
    147  C         14.3600   -5.8400   17.9530 C.2   197  SER197      0.2288
    148  O         14.2310   -5.7180   16.7370 O.2   197  SER197     -0.2866
    149  CB        15.1820   -8.1270   18.0830 C.3   197  SER197      0.2089
    150  OG        15.3170   -9.2660   18.8340 O.3   197  SER197     -0.2183
    151  N         13.8500   -3.6900   22.8020 N.3   217  VAL217     -0.1231
    152  CA        13.5450   -5.1380   22.8640 C.3   217  VAL217      0.1692
    153  C         14.8900   -5.9030   22.6860 C.2   217  VAL217      0.2593
    154  O         15.6100   -5.8330   21.6670 O.2   217  VAL217     -0.2718
    155  CB        12.4630   -5.5440   21.8650 C.3   217  VAL217      0.0266
    156  CG1       12.1080   -7.0850   21.9740 C.3   217  VAL217      0.0020
    157  CG2       11.1900   -4.6970   21.9440 C.3   217  VAL217      0.0020
    158  N         15.1420   -6.7490   23.7040 N.am  218  SER218     -0.1938
    159  CA        16.4090   -7.4880   23.6960 C.3   218  SER218      0.2055
    160  C         16.3560   -8.9970   23.5600 C.2   218  SER218      0.2643
    161  O         16.8680   -9.5090   22.5420 O.2   218  SER218     -0.2714
    162  CB        17.3510   -7.1060   24.8820 C.3   218  SER218      0.2130
    163  OG        18.6660   -7.6240   24.5700 O.3   218  SER218     -0.2179
    164  N         15.7720   -9.6820   24.5400 N.am  219  TRP219     -0.1959
    165  CA        15.7490  -11.1710   24.5530 C.3   219  TRP219      0.1771
    166  C         14.7000  -11.6530   25.4880 C.2   219  TRP219      0.2620
    167  O         14.1290  -10.8550   26.2560 O.2   219  TRP219     -0.2715
    168  CB        17.1630  -11.7040   24.9800 C.3   219  TRP219      0.0590
    169  CG        17.5810  -11.2910   26.3570 C.ar  219  TRP219      0.0006
    170  CD1       18.3620  -10.2070   26.6440 C.ar  219  TRP219      0.0946
    171  CD2       17.4660  -12.0260   27.5930 C.ar  219  TRP219      0.0152
    172  NE1       18.6420  -10.1470   27.9960 N.ar  219  TRP219     -0.2442
    173  CE2       18.1730  -11.2780   28.5870 C.ar  219  TRP219      0.0810
    174  CE3       16.8290  -13.2050   27.9680 C.ar  219  TRP219      0.0012
    175  CZ2       18.2100  -11.6900   29.9280 C.ar  219  TRP219      0.0191
    176  CZ3       16.8360  -13.6300   29.2910 C.ar  219  TRP219      0.0001
    177  CH2       17.5420  -12.8770   30.2130 C.ar  219  TRP219      0.0015
    178  N         14.3850  -12.9300   25.4160 N.am  220  GLY220     -0.1940
    179  CA        13.4270  -13.4970   26.4340 C.3   220  GLY220      0.2014
    180  C         13.5620  -15.0420   26.2460 C.2   220  GLY220      0.2642
    181  O         14.3300  -15.4920   25.4200 O.2   220  GLY220     -0.2714
    182  N         12.7280  -15.8040   26.8850 N.am  221  GLU221     -0.1917
    183  CA        12.7690  -17.2820   26.6840 C.3   221  GLU221      0.1949
    184  C         11.3510  -17.7530   26.5310 C.2   221  GLU221      0.2659
    185  O         10.4770  -17.7030   27.4190 O.2   221  GLU221     -0.2711
    186  CB        13.6620  -17.9590   27.6810 C.2   221  GLU221      0.0111
    187  CG        14.1950  -17.1700   28.8380 C.2   221  GLU221      0.0838
    188  CD        15.2930  -17.6900   29.7070 C.2   221  GLU221      0.3877
    189  OE1       16.3220  -18.2390   29.3380 O.co2 221  GLU221     -0.2406
    190  OE2       15.0000  -17.4510   30.8890 O.co2 221  GLU221     -0.2406
    191  N         11.1500  -18.0480   25.2350 N.am  222  GLY222     -0.1937
    192  CA         9.7020  -18.3070   24.8300 C.3   222  GLY222      0.2014
    193  C          9.0850  -16.8570   24.6200 C.2   222  GLY222      0.2639
    194  O          9.7980  -15.8110   24.4840 O.2   222  GLY222     -0.2714
    195  N          7.7760  -16.8520   24.6360 N.am  223  CYS223     -0.1967
    196  CA         7.0130  -15.6040   24.4660 C.3   223  CYS223      0.1712
    197  C          5.7220  -15.8360   25.2510 C.2   223  CYS223      0.2296
    198  O          5.0680  -16.8690   25.0190 O.2   223  CYS223     -0.2864
    199  CB         6.6940  -15.1650   23.0470 C.3   223  CYS223      0.0983
    200  SG         8.0490  -15.2680   21.9000 S.3   223  CYS223     -0.0798
    201  N          9.5220  -13.1070   31.7320 N.3   229  TYR229     -0.1227
    202  CA         9.4900  -11.7160   31.3490 C.3   229  TYR229      0.1736
    203  C         10.3490  -11.3400   30.1660 C.2   229  TYR229      0.2596
    204  O         11.3470  -11.9700   29.8000 O.2   229  TYR229     -0.2718
    205  CB         9.9510  -10.8520   32.5870 C.3   229  TYR229      0.0548
    206  CG         9.1440  -11.2830   33.7770 C.ar  229  TYR229     -0.0200
    207  CD1        7.8550  -10.7210   33.9300 C.ar  229  TYR229     -0.0009
    208  CD2        9.5850  -12.2790   34.6500 C.ar  229  TYR229     -0.0009
    209  CE1        6.9910  -11.1330   34.9420 C.ar  229  TYR229      0.0417
    210  CE2        8.7670  -12.6430   35.7360 C.ar  229  TYR229      0.0417
    211  CZ         7.4830  -12.1000   35.8360 C.ar  229  TYR229      0.1957
    212  OH         6.6110  -12.5190   36.8220 O.3   229  TYR229     -0.2866
    213  N          9.9460  -10.2370   29.4770 N.am  230  GLY230     -0.1942
    214  CA        10.8040   -9.8390   28.2970 C.3   230  GLY230      0.2014
    215  C         11.9830   -9.0180   28.9400 C.2   230  GLY230      0.2639
    216  O         11.6380   -8.4380   29.9960 O.2   230  GLY230     -0.2714
    217  N         13.1120   -9.0270   28.3230 N.am  231  PHE231     -0.1959
    218  CA        14.2830   -8.2420   28.7600 C.3   231  PHE231      0.1771
    219  C         14.5820   -7.1510   27.6990 C.2   231  PHE231      0.2619
    220  O         14.3940   -7.3400   26.4700 O.2   231  PHE231     -0.2715
    221  CB        15.5300   -9.0710   29.1360 C.3   231  PHE231      0.0574
    222  CG        15.3430   -9.7910   30.4560 C.ar  231  PHE231     -0.0200
    223  CD1       14.5030  -10.9390   30.4730 C.ar  231  PHE231     -0.0042
    224  CD2       16.0030   -9.3760   31.6030 C.ar  231  PHE231     -0.0042
    225  CE1       14.2840  -11.6620   31.6510 C.ar  231  PHE231     -0.0003
    226  CE2       15.7630  -10.0240   32.8190 C.ar  231  PHE231     -0.0003
    227  CZ        14.9220  -11.1720   32.8220 C.ar  231  PHE231     -0.0000
    228  N         15.0060   -5.9900   28.2200 N.am  232  TYR232     -0.1974
    229  CA        15.2150   -4.8030   27.3750 C.3   232  TYR232      0.1639
    230  C         16.5250   -4.1260   27.7580 C.2   232  TYR232      0.2290
    231  O         16.9060   -4.1480   28.9270 O.2   232  TYR232     -0.2864
    232  CB        14.0290   -3.7790   27.6200 C.3   232  TYR232      0.0560
    233  CG        12.6460   -4.3600   27.3280 C.ar  232  TYR232     -0.0198
    234  CD1       11.9580   -5.2040   28.1750 C.ar  232  TYR232     -0.0009
    235  CD2       12.0930   -4.1270   26.0350 C.ar  232  TYR232     -0.0009
    236  CE1       10.7280   -5.7740   27.8040 C.ar  232  TYR232      0.0417
    237  CE2       10.9020   -4.6630   25.6810 C.ar  232  TYR232      0.0417
    238  CZ        10.2350   -5.5250   26.5220 C.ar  232  TYR232      0.1957
    239  OH         9.0600   -6.1020   26.1130 O.3   232  TYR232     -0.2866
@<TRIPOS>BOND
     1     1     2    1
     2     5     2    1
     3     5     6    1
     4     7     6    1
     5     2     3    1
     6     8     6    1
     7    64    63    1
     8    64    65    1
     9    63    62    1
    10     3     9   am
    11     3     4    2
    12    58    59    1
    13    58    57    1
    14    58    61    1
    15     9    10    1
    16    59    60    2
    17    46    45    2
    18    12    11    2
    19    62    61    1
    20    28    27    2
    21    45    44    1
    22    11    10    1
    23    10    13    1
    24    13    14    1
    25    27    26    1
    26    44    47    1
    27    44    43    1
    28    14    30    1
    29    47    48    1
    30   144   143    2
    31    29    26    1
    32    29    30    1
    33    26    25    1
    34   142   143    1
    35   142   141    1
    36    34    33    2
    37    31    32    1
    38    48    50   ar
    39    48    49   ar
    40    33    32    1
    41    53    50   ar
    42    53    55   ar
    43   141   134   am
    44    18    17    2
    45    50    52   ar
    46   135   134    2
    47    25    17   am
    48    32    35    1
    49    49    51   ar
    50    35    36    1
    51    55    56   ar
    52   148   147    2
    53   134   133    1
    54    17    16    1
    55    52    51   ar
    56    52    54   ar
    57    38    36   ar
    58    38    40   ar
    59   136   133    1
    60   136   137    1
    61    56    54   ar
    62    36    37   ar
    63   147   146    1
    64   133   132    1
    65   149   146    1
    66   149   150    1
    67   145   146    1
    68    16    15    1
    69    16    19    1
    70    22    24   ar
    71    22    20   ar
    72   137   138    1
    73    40    41   ar
    74    24    23   ar
    75    37    39   ar
    76   129   128    2
    77   132   128   am
    78    19    20    1
    79    20    21   ar
    80   128   127    1
    81    77    79   ar
    82    77    75   ar
    83    79    78   ar
    84   138   139   ar
    85   138   140   ar
    86    41    39   ar
    87    41    42    1
    88    74    75   ar
    89    74    72   ar
    90    23    21   ar
    91    75    73   ar
    92   131   130    1
    93   131   200    1
    94    78    76   ar
    95   130   127    1
    96    72    71   ar
    97    73    76   ar
    98    73    71   ar
    99    71    70    1
   100   127   126    1
   101    70    67    1
   102   126   123   am
   103   154   153    2
   104   155   157    1
   105   155   156    1
   106   155   152    1
   107   200   199    1
   108   123   122    1
   109   123   124    2
   110    67    68    1
   111    67    66    1
   112   161   160    2
   113    69    68    2
   114   122   125    1
   115   122   121    1
   116   153   152    1
   117   153   158   am
   118   151   152    1
   119   103   102    1
   120   199   196    1
   121   116   115    2
   122   104   102    1
   123   102   101    1
   124   160   159    1
   125   160   164   am
   126   159   158    1
   127   159   162    1
   128   121   115   am
   129   115   114    1
   130   196   195    1
   131   196   197    1
   132   194   193    2
   133   164   165    1
   134   165   168    1
   135   165   166    1
   136   163   162    1
   137   193   195   am
   138   193   192    1
   139   192   191    1
   140   168   169    1
   141   101    98    1
   142   198   197    2
   143   191   184   am
   144    98    97    1
   145    98    99    1
   146   178   166   am
   147   178   179    1
   148   181   180    2
   149   114   113    1
   150   114   117    1
   151   166   167    2
   152   237   235   ar
   153   237   238   ar
   154   117   118    1
   155   235   233   ar
   156    80    81    1
   157   239   238    1
   158    97    91   am
   159   118   120   ar
   160   118   119   ar
   161    99   100    2
   162   180   179    1
   163   180   182   am
   164   169   170   ar
   165   169   171   ar
   166   220   219    2
   167   238   236   ar
   168   184   183    1
   169   184   185    2
   170   170   172   ar
   171   183   182    1
   172   183   186    1
   173    91    92    2
   174    91    90    1
   175    81    82    1
   176    81    84    1
   177   233   232    1
   178   233   234   ar
   179   229   232    1
   180   229   230    1
   181   229   228    1
   182    83    82    2
   183    82    89   am
   184   171   174   ar
   185   171   173   ar
   186   186   187    2
   187   219   228   am
   188   219   218    1
   189    89    90    1
   190   230   231    2
   191   236   234   ar
   192   174   176   ar
   193   172   173   ar
   194    90    93    1
   195   214   215    1
   196   214   213    1
   197   217   218    1
   198   217   215   am
   199    84    85    1
   200   173   175   ar
   201   218   221    1
   202   187   188    1
   203   215   216    2
   204   221   222    1
   205    95    94    2
   206   176   177   ar
   207   189   188   ar
   208   213   203   am
   209    93    94    1
   210   188   190   ar
   211   204   203    2
   212    85    86    1
   213   175   177   ar
   214   112   110    1
   215    94    96   am
   216   203   202    1
   217   110   109    1
   218   222   223   ar
   219   222   224   ar
   220   223   225   ar
   221    87    86   ar
   222   111   109    1
   223    86    88   ar
   224   109   106    1
   225   202   201    1
   226   202   205    1
   227   224   226   ar
   228   225   227   ar
   229   106   105    1
   230   106   107    1
   231   205   206    1
   232   226   227   ar
   233   107   108    2
   234   206   207   ar
   235   206   208   ar
   236   207   209   ar
   237   208   210   ar
   238   209   211   ar
   239   210   211   ar
   240   211   212    1
