@<TRIPOS>MOLECULE
tmp/1tc0B00.pdb
 151 142 0 0 0
SMALL
GASTEIGER

@<TRIPOS>ATOM
      1  N        109.6430   68.9750   18.9860 N.3    26  GLU26      -0.1231
      2  CA       110.3440   68.0030   19.8010 C.3    26  GLU26       0.1699
      3  C        110.6100   68.4750   21.2290 C.2    26  GLU26       0.2592
      4  O        110.5540   67.6740   22.1630 O.2    26  GLU26      -0.2718
      5  CB       111.6370   67.6010   19.1050 C.3    26  GLU26       0.0402
      6  CG       111.3760   66.9220   17.7760 C.3    26  GLU26       0.1161
      7  CD       110.3400   65.8110   17.8960 C.2    26  GLU26       0.3649
      8  OE1      110.5600   64.8570   18.6750 O.co2  26  GLU26      -0.2457
      9  OE2      109.3020   65.8910   17.2130 O.co2  26  GLU26      -0.2457
     10  N        110.8950   69.7620   21.4090 N.am   27  LEU27      -0.1980
     11  CA       111.1280   70.2810   22.7510 C.3    27  LEU27       0.1596
     12  C        109.8020   70.3220   23.5230 C.2    27  LEU27       0.2287
     13  O        109.7550   69.9680   24.6980 O.2    27  LEU27      -0.2864
     14  CB       111.7450   71.6830   22.6840 C.3    27  LEU27       0.0297
     15  CG       113.1050   71.7450   21.9770 C.3    27  LEU27       0.0022
     16  CD1      113.6350   73.1670   21.9990 C.3    27  LEU27       0.0001
     17  CD2      114.0790   70.7970   22.6590 C.3    27  LEU27       0.0001
     18  N        107.2770   68.4850   23.0510 N.3    29  SER29      -0.1202
     19  CA       106.9700   67.1070   23.3360 C.3    29  SER29       0.2020
     20  C        107.6620   66.6650   24.6030 C.2    29  SER29       0.2619
     21  O        107.0140   66.1980   25.5370 O.2    29  SER29      -0.2717
     22  CB       107.4260   66.2270   22.1900 C.3    29  SER29       0.2103
     23  OG       107.2450   64.8760   22.5330 O.3    29  SER29      -0.2182
     24  N        108.9850   66.8030   24.6250 N.am   30  ASN30      -0.1960
     25  CA       109.7620   66.4050   25.7890 C.3    30  ASN30       0.1819
     26  C        109.2960   67.1090   27.0570 C.2    30  ASN30       0.2621
     27  O        109.2930   66.5110   28.1260 O.2    30  ASN30      -0.2715
     28  CB       111.2570   66.6660   25.5640 C.3    30  ASN30       0.1195
     29  CG       111.8800   65.6690   24.6010 C.2    30  ASN30       0.2630
     30  OD1      111.2950   64.6210   24.3210 O.2    30  ASN30      -0.2716
     31  ND2      113.0760   65.9830   24.0970 N.am   30  ASN30      -0.0877
     32  N        108.9080   68.3780   26.9390 N.am   31  ALA31      -0.1977
     33  CA       108.4420   69.1120   28.0980 C.3    31  ALA31       0.1597
     34  C        107.1550   68.4440   28.5830 C.2    31  ALA31       0.2287
     35  O        107.0260   68.0940   29.7560 O.2    31  ALA31      -0.2864
     36  CB       108.1860   70.5590   27.7390 C.3    31  ALA31       0.0319
     37  N        106.0930   65.5040   28.2700 N.3    33  ASP33      -0.1225
     38  CA       106.3590   64.2270   28.9130 C.3    33  ASP33       0.1805
     39  C        106.8770   64.4300   30.3250 C.2    33  ASP33       0.2597
     40  O        106.4770   63.7170   31.2560 O.2    33  ASP33      -0.2718
     41  CB       107.3820   63.4350   28.1040 C.3    33  ASP33       0.1424
     42  CG       106.8650   63.0600   26.7340 C.2    33  ASP33       0.3668
     43  OD1      107.6590   62.5480   25.9200 O.co2  33  ASP33      -0.2456
     44  OD2      105.6580   63.2730   26.4750 O.co2  33  ASP33      -0.2456
     45  N        107.7690   65.4050   30.4770 N.am   34  ALA34      -0.1979
     46  CA       108.3580   65.7000   31.7770 C.3    34  ALA34       0.1597
     47  C        107.2600   66.1130   32.7350 C.2    34  ALA34       0.2287
     48  O        107.2420   65.7000   33.8890 O.2    34  ALA34      -0.2864
     49  CB       109.4020   66.8240   31.6460 C.3    34  ALA34       0.0319
     50  N        105.1330   63.0570   33.8840 N.3    37  LYS37      -0.1245
     51  CA       105.7540   62.2320   34.9130 C.3    37  LYS37       0.1561
     52  C        105.5800   62.8260   36.3030 C.2    37  LYS37       0.2260
     53  O        105.2670   62.1170   37.2500 O.2    37  LYS37      -0.2867
     54  CB       107.2470   62.0520   34.6450 C.3    37  LYS37       0.0271
     55  CG       107.5960   61.1740   33.4590 C.3    37  LYS37       0.0035
     56  CD       109.1000   60.9370   33.4250 C.3    37  LYS37       0.0206
     57  CE       109.5290   60.0810   32.2440 C.3    37  LYS37       0.1093
     58  NZ       109.3570   60.7970   30.9530 N.3    37  LYS37      -0.1314
     59  N        110.2790   74.2310   31.3750 N.3    72  ASP72      -0.1239
     60  CA       109.1120   73.5070   31.8540 C.3    72  ASP72       0.1674
     61  C        109.2940   73.2300   33.3490 C.2    72  ASP72       0.2266
     62  O        110.4250   73.2290   33.8550 O.2    72  ASP72      -0.2867
     63  CB       108.9520   72.1800   31.0990 C.3    72  ASP72       0.1410
     64  CG       110.0860   71.2010   31.3740 C.2    72  ASP72       0.3668
     65  OD1      110.2090   70.7120   32.5240 O.co2  72  ASP72      -0.2456
     66  OD2      110.8600   70.9180   30.4350 O.co2  72  ASP72      -0.2456
     67  N        109.3840   67.0670   35.6360 N.3    75  VAL75      -0.1231
     68  CA       110.1100   66.3120   36.6460 C.3    75  VAL75       0.1692
     69  C        111.5860   66.7050   36.7710 C.2    75  VAL75       0.2593
     70  O        112.1660   66.6160   37.8500 O.2    75  VAL75      -0.2718
     71  CB       109.9950   64.7770   36.3630 C.3    75  VAL75       0.0266
     72  CG1      110.6290   64.4260   35.0370 C.3    75  VAL75       0.0020
     73  CG2      110.6290   63.9850   37.4810 C.3    75  VAL75       0.0020
     74  N        112.1880   67.1440   35.6720 N.am   76  GLY76      -0.1942
     75  CA       113.5830   67.5190   35.7090 C.3    76  GLY76       0.2014
     76  C        114.4830   66.3080   35.5880 C.2    76  GLY76       0.2638
     77  O        113.9980   65.1740   35.4820 O.2    76  GLY76      -0.2714
     78  N        115.7910   66.5590   35.6020 N.am   77  MET77      -0.1976
     79  CA       116.8130   65.5200   35.5110 C.3    77  MET77       0.1605
     80  C        117.9240   65.7560   36.5260 C.2    77  MET77       0.2287
     81  O        118.3130   66.9000   36.7990 O.2    77  MET77      -0.2864
     82  CB       117.4510   65.4890   34.1190 C.3    77  MET77       0.0413
     83  CG       116.5660   64.9130   33.0300 C.3    77  MET77       0.0598
     84  SD       117.2340   65.2950   31.4230 S.3    77  MET77      -0.1393
     85  CE       116.5020   66.9390   31.1450 C.3    77  MET77       0.0692
     86  N        120.5980   60.5260   29.9480 N.3    85  ASN85      -0.1225
     87  CA       119.4830   60.7320   29.0300 C.3    85  ASN85       0.1785
     88  C        119.7270   61.7220   27.8990 C.2    85  ASN85       0.2597
     89  O        118.9410   61.7900   26.9580 O.2    85  ASN85      -0.2718
     90  CB       118.2380   61.1500   29.8090 C.3    85  ASN85       0.1169
     91  CG       117.9980   60.2830   31.0360 C.2    85  ASN85       0.2627
     92  OD1      118.4830   59.1530   31.1210 O.2    85  ASN85      -0.2716
     93  ND2      117.2330   60.8090   31.9920 N.am   85  ASN85      -0.0877
     94  N        120.8040   62.4960   27.9810 N.am   86  LEU86      -0.1980
     95  CA       121.1060   63.4570   26.9260 C.3    86  LEU86       0.1596
     96  C        122.3520   63.0180   26.1740 C.2    86  LEU86       0.2287
     97  O        122.4870   63.2850   24.9840 O.2    86  LEU86      -0.2864
     98  CB       121.3200   64.8580   27.5120 C.3    86  LEU86       0.0297
     99  CG       120.1300   65.4950   28.2350 C.3    86  LEU86       0.0022
    100  CD1      120.5300   66.8390   28.8130 C.3    86  LEU86       0.0001
    101  CD2      118.9750   65.6580   27.2650 C.3    86  LEU86       0.0001
    102  N        118.9800   60.2790   14.3200 N.3    91  ILE91      -0.1245
    103  CA       117.6010   60.4180   14.6330 C.3    91  ILE91       0.1561
    104  C        117.2700   61.9100   14.6760 C.2    91  ILE91       0.2260
    105  O        116.1590   62.3360   14.3340 O.2    91  ILE91      -0.2867
    106  CB       117.3630   59.6840   15.9550 C.3    91  ILE91       0.0252
    107  CG1      115.9210   59.2620   16.0870 C.3    91  ILE91       0.0019
    108  CG2      117.5980   60.5820   17.0940 C.3    91  ILE91       0.0019
    109  CD1      114.9640   60.4090   16.4940 C.3    91  ILE91       0.0001
    110  N        113.4410   63.8390   18.4110 N.3    97  GLY97      -0.1210
    111  CA       114.2670   63.6750   19.5940 C.3    97  GLY97       0.1956
    112  C        115.0280   64.9220   20.0120 C.2    97  GLY97       0.2612
    113  O        115.0090   65.9470   19.3260 O.2    97  GLY97      -0.2717
    114  N        115.7080   64.8160   21.1500 N.am   98  PHE98      -0.1962
    115  CA       116.4900   65.9140   21.7120 C.3    98  PHE98       0.1771
    116  C        117.4660   66.5060   20.6970 C.2    98  PHE98       0.2619
    117  O        117.5800   67.7190   20.5710 O.2    98  PHE98      -0.2715
    118  CB       117.2540   65.4230   22.9520 C.3    98  PHE98       0.0574
    119  CG       118.1580   66.4610   23.5650 C.ar   98  PHE98      -0.0200
    120  CD1      117.6420   67.6570   24.0440 C.ar   98  PHE98      -0.0042
    121  CD2      119.5290   66.2460   23.6420 C.ar   98  PHE98      -0.0042
    122  CE1      118.4850   68.6350   24.5940 C.ar   98  PHE98      -0.0003
    123  CE2      120.3800   67.2130   24.1880 C.ar   98  PHE98      -0.0003
    124  CZ       119.8570   68.4090   24.6630 C.ar   98  PHE98      -0.0000
    125  N        118.1480   65.6430   19.9560 N.am   99  TYR99      -0.1974
    126  CA       119.1170   66.1010   18.9770 C.3    99  TYR99       0.1639
    127  C        118.5930   66.9720   17.8380 C.2    99  TYR99       0.2290
    128  O        119.3760   67.5670   17.1030 O.2    99  TYR99      -0.2864
    129  CB       119.9010   64.9000   18.4470 C.3    99  TYR99       0.0560
    130  CG       120.9700   64.4880   19.4290 C.ar   99  TYR99      -0.0198
    131  CD1      122.3250   64.6380   19.1250 C.ar   99  TYR99      -0.0009
    132  CD2      120.6270   64.0730   20.7160 C.ar   99  TYR99      -0.0009
    133  CE1      123.3110   64.3940   20.0850 C.ar   99  TYR99       0.0417
    134  CE2      121.6000   63.8270   21.6830 C.ar   99  TYR99       0.0417
    135  CZ       122.9390   63.9930   21.3660 C.ar   99  TYR99       0.1957
    136  OH       123.8950   63.7830   22.3410 O.3    99  TYR99      -0.2866
    137  N        113.1100   71.9640   33.8860 N.3   144  THR144     -0.1218
    138  CA       114.2250   71.9810   32.9640 C.3   144  THR144      0.1862
    139  C        114.1430   73.1010   31.9510 C.2   144  THR144      0.2287
    140  O        113.0830   73.3420   31.3690 O.2   144  THR144     -0.2866
    141  CB       114.2530   70.6570   32.2000 C.3   144  THR144      0.1770
    142  OG1      114.3350   69.5770   33.1390 O.3   144  THR144     -0.2211
    143  CG2      115.4190   70.6050   31.2300 C.3   144  THR144      0.0375
    144  N        115.7560   74.4100   28.4250 N.3   146  ILE146     -0.1245
    145  CA       116.5660   74.0840   27.2650 C.3   146  ILE146      0.1561
    146  C        116.9000   75.4370   26.6480 C.2   146  ILE146      0.2260
    147  O        115.9940   76.1860   26.2570 O.2   146  ILE146     -0.2867
    148  CB       115.7890   73.2810   26.2230 C.3   146  ILE146      0.0252
    149  CG1      115.0630   72.1060   26.8940 C.3   146  ILE146      0.0019
    150  CG2      116.7550   72.7860   25.1480 C.3   146  ILE146      0.0019
    151  CD1      115.9850   71.0720   27.5210 C.3   146  ILE146      0.0001
@<TRIPOS>BOND
     1   102   103    1
     2   105   104    2
     3   103   104    1
     4   103   106    1
     5   106   107    1
     6   106   108    1
     7   107   109    1
     8   128   127    2
     9     9     7   ar
    10     6     7    1
    11     6     5    1
    12   127   126    1
    13     7     8   ar
    14   110   111    1
    15   129   126    1
    16   129   130    1
    17   126   125    1
    18     1     2    1
    19     5     2    1
    20   131   130   ar
    21   131   133   ar
    22   113   112    2
    23   130   132   ar
    24   111   112    1
    25     2     3    1
    26   125   116   am
    27   112   114   am
    28   133   135   ar
    29   117   116    2
    30   116   115    1
    31   132   134   ar
    32   114   115    1
    33     3    10   am
    34     3     4    2
    35   135   134   ar
    36   135   136    1
    37    10    11    1
    38   115   118    1
    39    15    16    1
    40    15    17    1
    41    15    14    1
    42    22    23    1
    43    22    19    1
    44    14    11    1
    45    11    12    1
    46   118   119    1
    47    18    19    1
    48    19    20    1
    49    12    13    2
    50   119   121   ar
    51   119   120   ar
    52   121   123   ar
    53   120   122   ar
    54    31    29   am
    55   123   124   ar
    56    30    29    2
    57   122   124   ar
    58    29    28    1
    59    20    24   am
    60    20    21    2
    61    24    25    1
    62    97    96    2
    63   150   148    1
    64    28    25    1
    65    25    26    1
    66    43    42   ar
    67    96    95    1
    68   148   149    1
    69   148   145    1
    70   147   146    2
    71    44    42   ar
    72   146   145    1
    73    42    41    1
    74   149   151    1
    75    95    98    1
    76    95    94    1
    77    32    26   am
    78    32    33    1
    79    89    88    2
    80    26    27    2
    81   145   144    1
    82   101    99    1
    83    98    99    1
    84    36    33    1
    85    88    94   am
    86    88    87    1
    87    33    34    1
    88    41    38    1
    89    99   100    1
    90    37    38    1
    91    34    35    2
    92    38    39    1
    93    87    90    1
    94    87    86    1
    95    90    91    1
    96    39    45   am
    97    39    40    2
    98    66    64   ar
    99    45    46    1
   100    58    57    1
   101    91    92    2
   102    91    93   am
   103    63    64    1
   104    63    60    1
   105    85    84    1
   106   143   141    1
   107   140   139    2
   108    64    65   ar
   109    59    60    1
   110    84    83    1
   111    49    46    1
   112    46    47    1
   113    60    61    1
   114   139   138    1
   115   141   138    1
   116   141   142    1
   117    57    56    1
   118    47    48    2
   119   138   137    1
   120    83    82    1
   121    61    62    2
   122    56    55    1
   123    55    54    1
   124    50    51    1
   125    82    79    1
   126    54    51    1
   127    51    52    1
   128    72    71    1
   129    77    76    2
   130    79    78    1
   131    79    80    1
   132    76    78   am
   133    76    75    1
   134    67    68    1
   135    74    75    1
   136    74    69   am
   137    52    53    2
   138    71    68    1
   139    71    73    1
   140    80    81    2
   141    68    69    1
   142    69    70    2
