@<TRIPOS>MOLECULE
tmp/1tc0A00.pdb
 143 134 0 0 0
SMALL
GASTEIGER

@<TRIPOS>ATOM
      1  N         97.8190   44.8470    9.2610 N.3    29  LEU29      -0.1245
      2  CA        97.5660   43.4810    8.8210 C.3    29  LEU29       0.1561
      3  C         96.0870   43.1300    8.9940 C.2    29  LEU29       0.2260
      4  O         95.5130   42.4340    8.1600 O.2    29  LEU29      -0.2867
      5  CB        98.4460   42.4950    9.5910 C.3    29  LEU29       0.0270
      6  CG        99.9590   42.6950    9.4420 C.3    29  LEU29       0.0019
      7  CD1      100.6860   41.6070   10.2050 C.3    29  LEU29       0.0001
      8  CD2      100.3570   42.6640    7.9660 C.3    29  LEU29       0.0001
      9  N         94.1600   44.7620    6.1660 N.3    32  ASN32      -0.1225
     10  CA        94.3010   44.0560    4.8900 C.3    32  ASN32       0.1785
     11  C         93.4770   42.7760    4.8800 C.2    32  ASN32       0.2597
     12  O         92.9140   42.3830    3.8500 O.2    32  ASN32      -0.2718
     13  CB        95.7560   43.7090    4.6320 C.3    32  ASN32       0.1169
     14  CG        96.5960   44.9310    4.3110 C.2    32  ASN32       0.2627
     15  OD1       97.8190   44.8950    4.4080 O.2    32  ASN32      -0.2716
     16  ND2       95.9430   46.0070    3.9090 N.am   32  ASN32      -0.0877
     17  N         93.4270   42.1110    6.0280 N.am   33  ALA33      -0.1979
     18  CA        92.6600   40.8860    6.1330 C.3    33  ALA33       0.1597
     19  C         91.1960   41.2690    5.9340 C.2    33  ALA33       0.2287
     20  O         90.4450   40.5680    5.2580 O.2    33  ALA33      -0.2864
     21  CB        92.8610   40.2570    7.5030 C.3    33  ALA33       0.0319
     22  N         89.9640   43.8190    4.2480 N.3    35  ASP35      -0.1225
     23  CA        89.7270   44.1740    2.8600 C.3    35  ASP35       0.1805
     24  C         89.5320   42.9070    2.0370 C.2    35  ASP35       0.2597
     25  O         88.5960   42.8120    1.2460 O.2    35  ASP35      -0.2718
     26  CB        90.9170   44.9510    2.2800 C.3    35  ASP35       0.1424
     27  CG        91.0580   46.3410    2.8670 C.2    35  ASP35       0.3668
     28  OD1       92.0650   47.0120    2.5380 O.co2  35  ASP35      -0.2456
     29  OD2       90.1750   46.7630    3.6500 O.co2  35  ASP35      -0.2456
     30  N         90.4310   41.9440    2.2290 N.am   36  ALA36      -0.1979
     31  CA        90.3820   40.6860    1.5000 C.3    36  ALA36       0.1597
     32  C         89.0740   39.9660    1.7590 C.2    36  ALA36       0.2287
     33  O         88.5080   39.3450    0.8670 O.2    36  ALA36      -0.2864
     34  CB        91.5680   39.7880    1.9130 C.3    36  ALA36       0.0319
     35  N         86.2630   41.7060   -0.0600 N.3    39  LYS39      -0.1245
     36  CA        86.2830   41.4690   -1.4960 C.3    39  LYS39       0.1561
     37  C         85.6250   40.1610   -1.8830 C.2    39  LYS39       0.2260
     38  O         84.8430   40.1170   -2.8240 O.2    39  LYS39      -0.2867
     39  CB        87.7070   41.4600   -2.0360 C.3    39  LYS39       0.0271
     40  CG        88.4100   42.7910   -2.0680 C.3    39  LYS39       0.0035
     41  CD        89.7460   42.5730   -2.7480 C.3    39  LYS39       0.0206
     42  CE        90.4040   43.8560   -3.2110 C.3    39  LYS39       0.1093
     43  NZ        91.1230   44.5410   -2.1340 N.3    39  LYS39      -0.1314
     44  N         93.7570   34.8530    7.1640 N.3    74  ASP74      -0.1239
     45  CA        92.4010   35.2260    6.7940 C.3    74  ASP74       0.1674
     46  C         91.9340   34.3320    5.6640 C.2    74  ASP74       0.2266
     47  O         92.7480   33.8120    4.8830 O.2    74  ASP74      -0.2867
     48  CB        92.3260   36.6920    6.3370 C.3    74  ASP74       0.1410
     49  CG        93.0260   36.9370    4.9960 C.2    74  ASP74       0.3668
     50  OD1       94.0890   37.6050    4.9830 O.co2  74  ASP74      -0.2456
     51  OD2       92.5100   36.4770    3.9520 O.co2  74  ASP74      -0.2456
     52  N         89.9560   36.8160   -0.0770 N.3    77  VAL77      -0.1231
     53  CA        90.1030   36.5370   -1.5000 C.3    77  VAL77       0.1692
     54  C         91.4390   35.9010   -1.8910 C.2    77  VAL77       0.2593
     55  O         91.5290   35.2270   -2.9150 O.2    77  VAL77      -0.2718
     56  CB        89.9180   37.8460   -2.3170 C.3    77  VAL77       0.0266
     57  CG1       91.1350   38.7500   -2.1260 C.3    77  VAL77       0.0020
     58  CG2       89.6910   37.5410   -3.7910 C.3    77  VAL77       0.0020
     59  N         92.4730   36.1200   -1.0910 N.am   78  GLY78      -0.1942
     60  CA        93.7670   35.5560   -1.4340 C.3    78  GLY78       0.2014
     61  C         94.4080   36.3260   -2.5810 C.2    78  GLY78       0.2638
     62  O         93.8340   37.2960   -3.0830 O.2    78  GLY78      -0.2714
     63  N         95.6010   35.9030   -2.9860 N.am   79  MET79      -0.1976
     64  CA        96.3360   36.5430   -4.0740 C.3    79  MET79       0.1605
     65  C         96.9280   35.4940   -5.0140 C.2    79  MET79       0.2287
     66  O         97.3840   34.4440   -4.5750 O.2    79  MET79      -0.2864
     67  CB        97.4880   37.3940   -3.5230 C.3    79  MET79       0.0413
     68  CG        97.0890   38.5930   -2.6920 C.3    79  MET79       0.0598
     69  SD        98.5290   39.4500   -1.9610 S.3    79  MET79      -0.1393
     70  CE        98.6480   38.6390   -0.4010 C.3    79  MET79       0.0692
     71  N        101.9380   43.0510   -6.1470 N.3    87  ASN87      -0.1225
     72  CA       101.3140   43.7680   -5.0420 C.3    87  ASN87       0.1785
     73  C        102.1510   43.7250   -3.7560 C.2    87  ASN87       0.2597
     74  O        102.0100   44.5870   -2.8780 O.2    87  ASN87      -0.2718
     75  CB        99.9210   43.1920   -4.7700 C.3    87  ASN87       0.1169
     76  CG        99.0010   43.2980   -5.9650 C.2    87  ASN87       0.2627
     77  OD1       99.4500   43.3680   -7.1070 O.2    87  ASN87      -0.2716
     78  ND2       97.7000   43.2860   -5.7120 N.am   87  ASN87      -0.0877
     79  N        103.0020   42.7120   -3.6310 N.am   88  LEU88      -0.1980
     80  CA       103.8450   42.5830   -2.4490 C.3    88  LEU88       0.1596
     81  C        105.2950   42.7210   -2.8580 C.2    88  LEU88       0.2287
     82  O        106.0620   43.4220   -2.2090 O.2    88  LEU88      -0.2864
     83  CB       103.6430   41.2270   -1.7710 C.3    88  LEU88       0.0297
     84  CG       102.2590   40.8850   -1.2120 C.3    88  LEU88       0.0022
     85  CD1      102.3490   39.5630   -0.4510 C.3    88  LEU88       0.0001
     86  CD2      101.7700   42.0080   -0.2980 C.3    88  LEU88       0.0001
     87  N        106.3370   46.2720   -3.5300 N.3    91  ILE91      -0.1245
     88  CA       106.1340   46.9800   -2.2730 C.3    91  ILE91       0.1561
     89  C        107.2450   46.7180   -1.2630 C.2    91  ILE91       0.2260
     90  O        107.7910   47.6490   -0.6770 O.2    91  ILE91      -0.2867
     91  CB       104.7960   46.5700   -1.6080 C.3    91  ILE91       0.0252
     92  CG1      103.6150   47.0580   -2.4500 C.3    91  ILE91       0.0019
     93  CG2      104.7290   47.1200   -0.1900 C.3    91  ILE91       0.0019
     94  CD1      103.5410   48.5640   -2.6070 C.3    91  ILE91       0.0001
     95  N        102.7870   52.3210    7.4260 N.3   122  VAL122     -0.1231
     96  CA       101.4890   52.1010    6.8030 C.3   122  VAL122      0.1692
     97  C        101.4710   50.9700    5.7780 C.2   122  VAL122      0.2593
     98  O        102.4220   50.7710    5.0220 O.2   122  VAL122     -0.2718
     99  CB       100.9650   53.3860    6.1280 C.3   122  VAL122      0.0266
    100  CG1      100.8800   54.5090    7.1560 C.3   122  VAL122      0.0020
    101  CG2      101.8670   53.7690    4.9720 C.3   122  VAL122      0.0020
    102  N        100.3700   50.2320    5.7530 N.am  123  GLY123     -0.1942
    103  CA       100.2630   49.1440    4.8080 C.3   123  GLY123      0.2014
    104  C        101.0800   47.9270    5.1900 C.2   123  GLY123      0.2639
    105  O        101.6140   47.8190    6.3050 O.2   123  GLY123     -0.2714
    106  N        101.1780   47.0110    4.2310 N.am  124  PHE124     -0.1959
    107  CA       101.8890   45.7590    4.3900 C.3   124  PHE124      0.1771
    108  C        103.3250   45.9470    4.8800 C.2   124  PHE124      0.2619
    109  O        103.7730   45.2330    5.7840 O.2   124  PHE124     -0.2715
    110  CB       101.8670   45.0180    3.0510 C.3   124  PHE124      0.0574
    111  CG       102.6590   43.7480    3.0360 C.ar  124  PHE124     -0.0200
    112  CD1      102.1940   42.6100    3.6930 C.ar  124  PHE124     -0.0042
    113  CD2      103.8660   43.6780    2.3400 C.ar  124  PHE124     -0.0042
    114  CE1      102.9160   41.4230    3.6550 C.ar  124  PHE124     -0.0003
    115  CE2      104.5990   42.4930    2.2950 C.ar  124  PHE124     -0.0003
    116  CZ       104.1260   41.3610    2.9520 C.ar  124  PHE124     -0.0000
    117  N        104.0340   46.9110    4.2880 N.am  125  TYR125     -0.1974
    118  CA       105.4200   47.1870    4.6560 C.3   125  TYR125      0.1639
    119  C        105.6020   47.4480    6.1440 C.2   125  TYR125      0.2290
    120  O        106.6920   47.2850    6.6720 O.2   125  TYR125     -0.2864
    121  CB       105.9600   48.3910    3.8760 C.3   125  TYR125      0.0560
    122  CG       107.4690   48.4340    3.8320 C.ar  125  TYR125     -0.0198
    123  CD1      108.1720   47.7140    2.8650 C.ar  125  TYR125     -0.0009
    124  CD2      108.2000   49.1550    4.7780 C.ar  125  TYR125     -0.0009
    125  CE1      109.5650   47.7030    2.8420 C.ar  125  TYR125      0.0417
    126  CE2      109.5950   49.1490    4.7660 C.ar  125  TYR125      0.0417
    127  CZ       110.2720   48.4180    3.7950 C.ar  125  TYR125      0.1957
    128  OH       111.6520   48.3670    3.7820 O.3   125  TYR125     -0.2866
    129  N         94.8230   33.9760    2.9490 N.3   170  THR170     -0.1218
    130  CA        96.2020   34.3720    3.1420 C.3   170  THR170      0.1862
    131  C         96.6630   34.3070    4.5830 C.2   170  THR170      0.2287
    132  O         95.9470   34.7240    5.4900 O.2   170  THR170     -0.2866
    133  CB        96.3840   35.8340    2.6820 C.3   170  THR170      0.1770
    134  OG1       96.0140   35.9430    1.3050 O.3   170  THR170     -0.2211
    135  CG2       97.8310   36.2960    2.8910 C.3   170  THR170      0.0375
    136  N         99.8290   35.5520    6.9730 N.3   172  ILE172     -0.1245
    137  CA       100.9760   36.4320    6.9830 C.3   172  ILE172      0.1561
    138  C        101.8110   35.8820    8.1340 C.2   172  ILE172      0.2260
    139  O        101.3400   35.8230    9.2740 O.2   172  ILE172     -0.2867
    140  CB       100.5930   37.8940    7.3280 C.3   172  ILE172      0.0252
    141  CG1       99.4800   38.3880    6.3990 C.3   172  ILE172      0.0019
    142  CG2      101.8230   38.7910    7.1970 C.3   172  ILE172      0.0019
    143  CD1       99.9010   38.5700    4.9450 C.3   172  ILE172      0.0001
@<TRIPOS>BOND
     1    77    76    2
     2    71    72    1
     3    76    78   am
     4    76    75    1
     5    72    75    1
     6    72    73    1
     7    65    66    2
     8    65    64    1
     9    64    67    1
    10    64    63    1
    11    58    56    1
    12    73    79   am
    13    73    74    2
    14    79    80    1
    15    87    88    1
    16    67    68    1
    17    42    41    1
    18    42    43    1
    19    62    61    2
    20    63    61   am
    21    55    54    2
    22    81    80    1
    23    81    82    2
    24    38    37    2
    25    41    40    1
    26    68    69    1
    27    94    92    1
    28    61    60    1
    29    92    91    1
    30    80    83    1
    31    56    57    1
    32    56    53    1
    33    88    91    1
    34    88    89    1
    35    40    39    1
    36    39    36    1
    37    69    70    1
    38    54    53    1
    39    54    59   am
    40    37    36    1
    41    83    84    1
    42    91    93    1
    43    53    52    1
    44    36    35    1
    45    60    59    1
    46    89    90    2
    47    84    85    1
    48    84    86    1
    49    33    32    2
    50    25    24    2
    51   134   133    1
    52    31    32    1
    53    31    34    1
    54    31    30    1
    55    24    30   am
    56    24    23    1
    57    26    23    1
    58    26    27    1
    59   115   113   ar
    60   115   116   ar
    61   113   111   ar
    62    28    27   ar
    63   133   135    1
    64   133   130    1
    65   125   123   ar
    66   125   127   ar
    67    23    22    1
    68   123   122   ar
    69    27    29   ar
    70   129   130    1
    71   116   114   ar
    72   111   110    1
    73   111   112   ar
    74   110   107    1
    75   130   131    1
    76   114   112   ar
    77   128   127    1
    78   127   126   ar
    79   122   121    1
    80   122   124   ar
    81    12    11    2
    82   121   118    1
    83    16    14   am
    84    51    49   ar
    85   106   107    1
    86   106   104   am
    87   117   118    1
    88   117   108   am
    89    14    15    2
    90    14    13    1
    91   107   108    1
    92   131   132    2
    93    13    10    1
    94   118   119    1
    95   126   124   ar
    96   103   104    1
    97   103   102    1
    98   108   109    2
    99    11    10    1
   100    11    17   am
   101    47    46    2
   102    10     9    1
   103   143   141    1
   104   101    99    1
   105    50    49   ar
   106    49    48    1
   107    98    97    2
   108   104   105    2
   109    20    19    2
   110    46    45    1
   111   102    97   am
   112    97    96    1
   113    19    18    1
   114    17    18    1
   115    99    96    1
   116    99   100    1
   117    18    21    1
   118   119   120    2
   119    48    45    1
   120   141   140    1
   121    45    44    1
   122    96    95    1
   123   136   137    1
   124   137   140    1
   125   137   138    1
   126   142   140    1
   127     8     6    1
   128   138   139    2
   129     4     3    2
   130     2     3    1
   131     2     1    1
   132     2     5    1
   133     6     5    1
   134     6     7    1
