@<TRIPOS>MOLECULE
tmp/1tc1B01.pdb
 98 95 0 0 0
SMALL
GASTEIGER

@<TRIPOS>ATOM
      1  N         -8.3210    3.1110   38.0100 N.3    46  VAL46      -0.1231
      2  CA        -9.1050    4.3350   37.8290 C.3    46  VAL46       0.1692
      3  C         -8.3510    5.3020   36.9390 C.2    46  VAL46       0.2591
      4  O         -7.3050    5.8290   37.3170 O.2    46  VAL46      -0.2718
      5  CB        -9.4200    5.0260   39.1810 C.3    46  VAL46       0.0266
      6  CG1      -10.4330    6.1420   38.9570 C.3    46  VAL46       0.0020
      7  CG2       -9.9660    4.0050   40.1910 C.3    46  VAL46       0.0020
      8  N         -8.8510    5.5060   35.7270 N.am   47  LEU47      -0.1980
      9  CA        -8.1890    6.4180   34.7960 C.3    47  LEU47       0.1596
     10  C         -8.4000    7.8730   35.2450 C.2    47  LEU47       0.2287
     11  O         -9.3480    8.1490   35.9860 O.2    47  LEU47      -0.2864
     12  CB        -8.7460    6.1940   33.3850 C.3    47  LEU47       0.0297
     13  CG        -8.5080    4.8060   32.7820 C.3    47  LEU47       0.0022
     14  CD1       -9.3150    4.6890   31.4850 C.3    47  LEU47       0.0001
     15  CD2       -7.0050    4.5470   32.5660 C.3    47  LEU47       0.0001
     16  N         -5.3640    3.2270   42.3600 N.3   107  GLU107     -0.1231
     17  CA        -5.4210    4.6780   42.1980 C.3   107  GLU107      0.1699
     18  C         -3.9990    5.3130   42.3250 C.2   107  GLU107      0.2592
     19  O         -3.1070    4.7700   42.9860 O.2   107  GLU107     -0.2718
     20  CB        -6.3680    5.2890   43.2350 C.3   107  GLU107      0.0402
     21  CG        -7.8060    5.3970   42.7360 C.3   107  GLU107      0.1161
     22  CD        -8.1920    6.8240   42.3590 C.2   107  GLU107      0.3649
     23  OE1       -7.3890    7.5400   41.6490 O.co2 107  GLU107     -0.2457
     24  OE2       -9.3180    7.3070   42.7540 O.co2 107  GLU107     -0.2457
     25  N         -3.7670    6.4900   41.6800 N.am  108  ASP108     -0.1960
     26  CA        -2.4210    7.1470   41.7370 C.3   108  ASP108      0.1840
     27  C         -2.2580    7.9440   43.0290 C.2   108  ASP108      0.2622
     28  O         -1.1610    8.0620   43.5920 O.2   108  ASP108     -0.2715
     29  CB        -2.1220    8.0540   40.5170 C.3   108  ASP108      0.1450
     30  CG        -3.1500    9.1490   40.2320 C.2   108  ASP108      0.3671
     31  OD1       -4.3060    9.1060   40.7890 O.co2 108  ASP108     -0.2456
     32  OD2       -2.8600   10.1060   39.4120 O.co2 108  ASP108     -0.2456
     33  N         -3.3370    8.4810   43.5180 N.am  109  ILE109     -0.1963
     34  CA        -3.2470    9.2030   44.7640 C.3   109  ILE109      0.1727
     35  C         -4.5760    9.2320   45.5050 C.2   109  ILE109      0.2616
     36  O         -5.6370    9.1970   44.8820 O.2   109  ILE109     -0.2715
     37  CB        -2.7680   10.6430   44.5390 C.3   109  ILE109      0.0290
     38  CG1       -2.5180   11.3860   45.8590 C.3   109  ILE109      0.0022
     39  CG2       -3.7630   11.4920   43.7460 C.3   109  ILE109      0.0023
     40  CD1       -1.9010   12.7730   45.6740 C.3   109  ILE109      0.0001
     41  N         -4.4910    9.1480   46.8340 N.am  110  VAL110     -0.1963
     42  CA        -5.6430    9.2730   47.7150 C.3   110  VAL110      0.1727
     43  C         -5.2990   10.4190   48.6660 C.2   110  VAL110      0.2616
     44  O         -4.3040   10.3580   49.4070 O.2   110  VAL110     -0.2715
     45  CB        -5.9930    7.9780   48.5250 C.3   110  VAL110      0.0290
     46  CG1       -4.8570    7.5270   49.4450 C.3   110  VAL110      0.0023
     47  CG2       -7.2200    8.1580   49.4210 C.3   110  VAL110      0.0023
     48  N         -6.0950   11.4690   48.5910 N.am  111  ASP111     -0.1957
     49  CA        -5.9140   12.6340   49.4610 C.3   111  ASP111      0.1840
     50  C         -7.2130   12.9150   50.1970 C.2   111  ASP111      0.2623
     51  O         -7.3780   12.6110   51.3750 O.2   111  ASP111     -0.2715
     52  CB        -5.4230   13.8640   48.6810 C.3   111  ASP111      0.1450
     53  CG        -6.0620   14.0540   47.3120 C.2   111  ASP111      0.3671
     54  OD1       -7.3370   13.9580   47.1810 O.co2 111  ASP111     -0.2456
     55  OD2       -5.3220   14.3260   46.2910 O.co2 111  ASP111     -0.2456
     56  N         -8.1850   13.4870   49.5540 N.am  112  THR112     -0.1937
     57  CA        -9.4180   13.7180   50.2840 C.3   112  THR112      0.2028
     58  C        -10.1440   12.4090   50.5060 C.2   112  THR112      0.2642
     59  O        -10.9510   12.3000   51.4290 O.2   112  THR112     -0.2714
     60  CB       -10.3710   14.6510   49.5300 C.3   112  THR112      0.1808
     61  OG1      -10.8500   14.0150   48.3550 O.3   112  THR112     -0.2208
     62  CG2       -9.7230   15.9700   49.1230 C.3   112  THR112      0.0379
     63  N         -9.8790   11.4510   49.6100 N.am  113  ALA113     -0.1963
     64  CA       -10.5020   10.1200   49.6000 C.3   113  ALA113      0.1728
     65  C        -11.9900   10.1400   49.2290 C.2   113  ALA113      0.2616
     66  O        -12.6580    9.1160   49.2940 O.2   113  ALA113     -0.2715
     67  CB       -10.3070    9.3940   50.9540 C.3   113  ALA113      0.0334
     68  N        -12.5190   11.2910   48.8300 N.am  114  LEU114     -0.1963
     69  CA       -13.9340   11.3530   48.4600 C.3   114  LEU114      0.1728
     70  C        -14.3420   10.4030   47.2970 C.2   114  LEU114      0.2617
     71  O        -15.3120    9.6610   47.4000 O.2   114  LEU114     -0.2715
     72  CB       -14.3180   12.8060   48.1620 C.3   114  LEU114      0.0311
     73  CG       -14.2480   13.7330   49.3810 C.3   114  LEU114      0.0022
     74  CD1      -14.3480   15.1930   48.9590 C.3   114  LEU114      0.0001
     75  CD2      -15.3510   13.3800   50.3530 C.3   114  LEU114      0.0001
     76  N        -13.5710   10.3940   46.2140 N.am  115  THR115     -0.1937
     77  CA       -13.8690    9.5240   45.0810 C.3   115  THR115      0.2028
     78  C        -13.5730    8.0700   45.4020 C.2   115  THR115      0.2642
     79  O        -14.3790    7.1950   45.1270 O.2   115  THR115     -0.2714
     80  CB       -13.0460    9.9210   43.8560 C.3   115  THR115      0.1808
     81  OG1      -13.3450   11.2750   43.5040 O.3   115  THR115     -0.2208
     82  CG2      -13.3510    9.0070   42.6890 C.3   115  THR115      0.0379
     83  N        -12.4070    7.7960   45.9780 N.am  116  LEU116     -0.1977
     84  CA       -12.0500    6.4210   46.3200 C.3   116  LEU116      0.1596
     85  C        -13.0480    5.8030   47.3190 C.2   116  LEU116      0.2287
     86  O        -13.4020    4.6370   47.2080 O.2   116  LEU116     -0.2864
     87  CB       -10.6190    6.3590   46.8690 C.3   116  LEU116      0.0297
     88  CG       -10.0510    4.9710   47.1570 C.3   116  LEU116      0.0022
     89  CD1      -10.1460    4.0790   45.8880 C.3   116  LEU116      0.0001
     90  CD2       -8.5890    5.1280   47.6100 C.3   116  LEU116      0.0001
     91  N         -1.0340   14.5230   37.4590 N.3   167  ASP167     -0.1239
     92  CA        -0.9680   15.7130   36.6240 C.3   167  ASP167      0.1674
     93  C         -1.1760   17.0520   37.2930 C.2   167  ASP167      0.2266
     94  O         -1.6760   17.1410   38.4140 O.2   167  ASP167     -0.2867
     95  CB        -2.0990   15.6320   35.5740 C.3   167  ASP167      0.1410
     96  CG        -3.4970   15.8240   36.2080 C.2   167  ASP167      0.3668
     97  OD1       -3.8600   15.0510   37.1180 O.co2 167  ASP167     -0.2456
     98  OD2       -4.2210   16.7760   35.8430 O.co2 167  ASP167     -0.2456
@<TRIPOS>BOND
     1    14    13    1
     2    15    13    1
     3    13    12    1
     4    12     9    1
     5     9    10    1
     6     9     8    1
     7    10    11    2
     8    95    96    1
     9    95    92    1
    10     8     3   am
    11    98    96   ar
    12    96    97   ar
    13    92    93    1
    14    92    91    1
    15     3     4    2
    16     3     2    1
    17    93    94    2
    18     2     1    1
    19     2     5    1
    20     6     5    1
    21     5     7    1
    22    32    30   ar
    23    30    29    1
    24    30    31   ar
    25    29    26    1
    26    23    22   ar
    27    25    26    1
    28    25    18   am
    29    26    27    1
    30    17    18    1
    31    17    16    1
    32    17    20    1
    33    18    19    2
    34    22    21    1
    35    22    24   ar
    36    82    80    1
    37    21    20    1
    38    27    33   am
    39    27    28    2
    40    81    80    1
    41    33    34    1
    42    39    37    1
    43    80    77    1
    44    37    34    1
    45    37    38    1
    46    34    35    1
    47    36    35    2
    48    77    78    1
    49    77    76    1
    50    79    78    2
    51    78    83   am
    52    35    41   am
    53    40    38    1
    54    89    88    1
    55    83    84    1
    56    76    70   am
    57    55    53   ar
    58    84    87    1
    59    84    85    1
    60    41    42    1
    61    87    88    1
    62    88    90    1
    63    54    53   ar
    64    86    85    2
    65    70    71    2
    66    70    69    1
    67    53    52    1
    68    42    45    1
    69    42    43    1
    70    72    69    1
    71    72    73    1
    72    61    60    1
    73    69    68    1
    74    45    47    1
    75    45    46    1
    76    48    43   am
    77    48    49    1
    78    43    44    2
    79    52    49    1
    80    68    65   am
    81    74    73    1
    82    62    60    1
    83    65    66    2
    84    65    64    1
    85    73    75    1
    86    49    50    1
    87    60    57    1
    88    56    50   am
    89    56    57    1
    90    64    63    1
    91    64    67    1
    92    63    58   am
    93    50    51    2
    94    57    58    1
    95    58    59    2
