@<TRIPOS>MOLECULE
tmp/1tc2A01.pdb
 130 126 0 0 0
SMALL
GASTEIGER

@<TRIPOS>ATOM
      1  N         41.4780   50.8420   33.3340 N.3    46  VAL46      -0.1231
      2  CA        42.2020   52.0880   33.4740 C.3    46  VAL46       0.1692
      3  C         41.4590   53.0830   34.3820 C.2    46  VAL46       0.2592
      4  O         40.4030   53.6180   34.0320 O.2    46  VAL46      -0.2718
      5  CB        42.5270   52.7270   32.0950 C.3    46  VAL46       0.0266
      6  CG1       43.4160   53.9700   32.2830 C.3    46  VAL46       0.0020
      7  CG2       43.2050   51.6840   31.1900 C.3    46  VAL46       0.0020
      8  N         42.0330   53.3520   35.5470 N.am   47  LEU47      -0.1966
      9  CA        41.4400   54.2920   36.5060 C.3    47  LEU47       0.1728
     10  C         41.5100   55.7270   35.9820 C.2    47  LEU47       0.2616
     11  O         42.3760   56.0370   35.1580 O.2    47  LEU47      -0.2715
     12  CB        42.1900   54.1910   37.8440 C.3    47  LEU47       0.0311
     13  CG        42.1380   52.8210   38.5260 C.3    47  LEU47       0.0022
     14  CD1       43.1540   52.7980   39.6600 C.3    47  LEU47       0.0001
     15  CD2       40.6990   52.5410   39.0170 C.3    47  LEU47       0.0001
     16  N         40.6220   56.6160   36.4330 N.am   48  LYS48      -0.1963
     17  CA        39.5670   56.3110   37.4010 C.3    48  LYS48       0.1728
     18  C         38.2330   56.0000   36.6890 C.2    48  LYS48       0.2616
     19  O         37.4760   55.1170   37.0980 O.2    48  LYS48      -0.2715
     20  CB        39.3430   57.5150   38.3320 C.3    48  LYS48       0.0311
     21  CG        40.5210   57.8830   39.2090 C.3    48  LYS48       0.0038
     22  CD        40.0760   58.6900   40.4330 C.3    48  LYS48       0.0206
     23  CE        39.9660   60.1750   40.1530 C.3    48  LYS48       0.1093
     24  NZ        39.3230   60.9300   41.2810 N.3    48  LYS48      -0.1314
     25  N         37.9980   56.6980   35.5810 N.am   49  GLY49      -0.1955
     26  CA        36.7590   56.5660   34.8320 C.3    49  GLY49       0.1869
     27  C         36.1820   55.2030   34.5090 C.2    49  GLY49       0.2309
     28  O         34.9750   55.0220   34.5590 O.2    49  GLY49      -0.2863
     29  N         38.4180   50.6720   29.0690 N.3   107  GLU107     -0.1231
     30  CA        38.4010   52.1360   29.1570 C.3   107  GLU107      0.1699
     31  C         36.9860   52.6640   29.0160 C.2   107  GLU107      0.2592
     32  O         36.1340   52.0430   28.3700 O.2   107  GLU107     -0.2718
     33  CB        39.2590   52.7680   28.0540 C.3   107  GLU107      0.0402
     34  CG        40.6440   53.2040   28.4680 C.3   107  GLU107      0.1161
     35  CD        40.6390   54.4700   29.3160 C.2   107  GLU107      0.3649
     36  OE1       41.5580   55.2880   29.1420 O.co2 107  GLU107     -0.2457
     37  OE2       39.7370   54.6540   30.1660 O.co2 107  GLU107     -0.2457
     38  N         36.7480   53.8290   29.6000 N.am  108  ASP108     -0.1960
     39  CA        35.4340   54.4370   29.5310 C.3   108  ASP108      0.1840
     40  C         35.2560   55.2150   28.2320 C.2   108  ASP108      0.2622
     41  O         34.1860   55.1660   27.6200 O.2   108  ASP108     -0.2715
     42  CB        35.1810   55.3460   30.7440 C.3   108  ASP108      0.1450
     43  CG        36.2530   56.4260   30.9220 C.2   108  ASP108      0.3671
     44  OD1       37.3700   56.3070   30.3600 O.co2 108  ASP108     -0.2456
     45  OD2       35.9820   57.4020   31.6610 O.co2 108  ASP108     -0.2456
     46  N         36.3060   55.9110   27.8010 N.am  109  ILE109     -0.1963
     47  CA        36.2410   56.6950   26.5760 C.3   109  ILE109      0.1727
     48  C         37.5810   56.8520   25.8690 C.2   109  ILE109      0.2616
     49  O         38.6450   56.8470   26.5000 O.2   109  ILE109     -0.2715
     50  CB        35.6130   58.1070   26.8280 C.3   109  ILE109      0.0290
     51  CG1       35.2960   58.8030   25.4980 C.3   109  ILE109      0.0022
     52  CG2       36.5350   58.9900   27.6610 C.3   109  ILE109      0.0023
     53  CD1       34.4290   60.0360   25.6230 C.3   109  ILE109      0.0001
     54  N         37.5280   56.8720   24.5370 N.am  110  VAL110     -0.1963
     55  CA        38.7130   57.0980   23.7250 C.3   110  VAL110      0.1727
     56  C         38.3600   58.2540   22.8010 C.2   110  VAL110      0.2616
     57  O         37.2850   58.2890   22.1940 O.2   110  VAL110     -0.2715
     58  CB        39.1960   55.8290   22.9700 C.3   110  VAL110      0.0290
     59  CG1       38.1640   55.3230   21.9780 C.3   110  VAL110      0.0023
     60  CG2       40.5370   56.1030   22.3180 C.3   110  VAL110      0.0023
     61  N         39.2280   59.2530   22.8120 N.am  111  ASP111     -0.1957
     62  CA        39.0720   60.4660   22.0340 C.3   111  ASP111      0.1840
     63  C         40.3400   60.6670   21.1990 C.2   111  ASP111      0.2623
     64  O         40.4130   60.1910   20.0530 O.2   111  ASP111     -0.2715
     65  CB        38.8540   61.6280   23.0010 C.3   111  ASP111      0.1450
     66  CG        38.5870   62.9370   22.3050 C.2   111  ASP111      0.3671
     67  OD1       38.2790   62.9540   21.1010 O.co2 111  ASP111     -0.2456
     68  OD2       38.6460   63.9750   22.9860 O.co2 111  ASP111     -0.2456
     69  N         41.3590   61.3050   21.7760 N.am  112  THR112     -0.1937
     70  CA        42.6060   61.5280   21.0450 C.3   112  THR112      0.2028
     71  C         43.3790   60.2360   20.9150 C.2   112  THR112      0.2642
     72  O         44.1680   60.0590   19.9750 O.2   112  THR112     -0.2714
     73  CB        43.4920   62.5690   21.7250 C.3   112  THR112      0.1808
     74  OG1       44.0300   62.0210   22.9390 O.3   112  THR112     -0.2208
     75  CG2       42.6770   63.8300   22.0230 C.3   112  THR112      0.0379
     76  N         43.1220   59.3380   21.8650 N.am  113  ALA113     -0.1963
     77  CA        43.7490   58.0230   21.9520 C.3   113  ALA113      0.1728
     78  C         45.2350   58.0410   22.2820 C.2   113  ALA113      0.2616
     79  O         45.8710   56.9910   22.2880 O.2   113  ALA113     -0.2715
     80  CB        43.5250   57.2340   20.6550 C.3   113  ALA113      0.0334
     81  N         45.7930   59.2020   22.5940 N.am  114  LEU114     -0.1963
     82  CA        47.2260   59.2640   22.8530 C.3   114  LEU114      0.1728
     83  C         47.6830   58.3470   23.9640 C.2   114  LEU114      0.2617
     84  O         48.6050   57.5500   23.7710 O.2   114  LEU114     -0.2715
     85  CB        47.6570   60.6910   23.1140 C.3   114  LEU114      0.0311
     86  CG        47.5540   61.5510   21.8550 C.3   114  LEU114      0.0022
     87  CD1       47.7360   63.0240   22.1950 C.3   114  LEU114      0.0001
     88  CD2       48.5870   61.0510   20.8570 C.3   114  LEU114      0.0001
     89  N         47.0070   58.4150   25.1100 N.am  115  THR115     -0.1937
     90  CA        47.3550   57.5790   26.2570 C.3   115  THR115      0.2028
     91  C         47.0310   56.1110   26.0070 C.2   115  THR115      0.2642
     92  O         47.8510   55.2380   26.2490 O.2   115  THR115     -0.2714
     93  CB        46.6210   58.0530   27.5430 C.3   115  THR115      0.1808
     94  OG1       46.8770   59.4480   27.7560 O.3   115  THR115     -0.2208
     95  CG2       47.1060   57.2580   28.7630 C.3   115  THR115      0.0379
     96  N         45.8320   55.8350   25.5150 N.am  116  LEU116     -0.1977
     97  CA        45.4400   54.4660   25.2590 C.3   116  LEU116      0.1596
     98  C         46.3540   53.8060   24.2130 C.2   116  LEU116      0.2287
     99  O         46.6890   52.6290   24.3410 O.2   116  LEU116     -0.2864
    100  CB        43.9780   54.4170   24.8220 C.3   116  LEU116      0.0297
    101  CG        43.4490   53.0150   24.5620 C.3   116  LEU116      0.0022
    102  CD1       43.6650   52.0580   25.7740 C.3   116  LEU116      0.0001
    103  CD2       41.9950   53.1460   24.1920 C.3   116  LEU116      0.0001
    104  N         32.5750   58.7740   34.0990 N.3   166  LEU166     -0.1231
    105  CA        33.1430   59.9490   33.4370 C.3   166  LEU166      0.1693
    106  C         32.9240   61.2420   34.2100 C.2   166  LEU166      0.2592
    107  O         31.7910   61.5950   34.5270 O.2   166  LEU166     -0.2718
    108  CB        32.5030   60.1120   32.0620 C.3   166  LEU166      0.0284
    109  CG        32.8530   59.0060   31.0770 C.3   166  LEU166      0.0019
    110  CD1       31.6550   58.7430   30.2200 C.3   166  LEU166      0.0001
    111  CD2       34.0530   59.4200   30.2410 C.3   166  LEU166      0.0001
    112  N         33.9720   62.0410   34.3320 N.am  167  ASP167     -0.1974
    113  CA        33.8560   63.2830   35.0740 C.3   167  ASP167      0.1709
    114  C         34.2100   64.5530   34.3300 C.2   167  ASP167      0.2293
    115  O         34.8090   64.5510   33.2460 O.2   167  ASP167     -0.2864
    116  CB        34.8260   63.2470   36.2420 C.3   167  ASP167      0.1436
    117  CG        36.2780   63.3980   35.7880 C.2   167  ASP167      0.3671
    118  OD1       36.7650   62.5380   35.0010 O.co2 167  ASP167     -0.2456
    119  OD2       36.9280   64.3890   36.2010 O.co2 167  ASP167     -0.2456
    120  N         30.9370   61.6430   38.3190 N.3   173  ARG173     -0.1245
    121  CA        31.2780   60.2670   37.9560 C.3   173  ARG173      0.1563
    122  C         30.2000   59.2800   38.3830 C.2   173  ARG173      0.2260
    123  O         30.0100   58.2380   37.7470 O.2   173  ARG173     -0.2867
    124  CB        32.5840   59.8080   38.6150 C.3   173  ARG173      0.0307
    125  CG        33.7950   60.6370   38.3560 C.3   173  ARG173      0.0489
    126  CD        35.0370   59.8190   38.7110 C.3   173  ARG173      0.2205
    127  NE        36.2500   60.6160   38.5870 N.pl3 173  ARG173     -0.0865
    128  CZ        36.9990   60.6940   37.4890 C.cat 173  ARG173      0.5346
    129  NH1       36.6660   60.0010   36.3980 N.pl3 173  ARG173      0.1354
    130  NH2       38.0320   61.5210   37.4710 N.pl3 173  ARG173      0.1354
@<TRIPOS>BOND
     1    72    71    2
     2    64    63    2
     3    80    77    1
     4    88    86    1
     5    71    70    1
     6    71    76   am
     7    70    73    1
     8    70    69    1
     9    67    66   ar
    10    63    69   am
    11    63    62    1
    12    73    75    1
    13    73    74    1
    14    86    87    1
    15    86    85    1
    16    76    77    1
    17    77    78    1
    18    59    58    1
    19    62    61    1
    20    62    65    1
    21    57    56    2
    22    78    79    2
    23    78    81   am
    24    66    68   ar
    25    66    65    1
    26    60    58    1
    27    81    82    1
    28    56    61   am
    29    56    55    1
    30    82    85    1
    31    82    83    1
    32    58    55    1
    33    55    54    1
    34    84    83    2
    35    83    89   am
    36   103   101    1
    37    98    99    2
    38    98    97    1
    39    54    48   am
    40   101   100    1
    41   101   102    1
    42   100    97    1
    43    89    90    1
    44    97    96    1
    45    51    53    1
    46    51    50    1
    47    96    91   am
    48    48    49    2
    49    48    47    1
    50    91    92    2
    51    91    90    1
    52    90    93    1
    53    47    50    1
    54    47    46    1
    55    50    52    1
    56    93    94    1
    57    93    95    1
    58    41    40    2
    59    46    40   am
    60    33    34    1
    61    33    30    1
    62    40    39    1
    63    32    31    2
    64    34    35    1
    65    31    30    1
    66    31    38   am
    67    29    30    1
    68    36    35   ar
    69    35    37   ar
    70    39    38    1
    71    39    42    1
    72   110   109    1
    73   111   109    1
    74    44    43   ar
    75    42    43    1
    76    43    45   ar
    77   109   108    1
    78     7     5    1
    79   108   105    1
    80     5     6    1
    81     5     2    1
    82   115   114    2
    83     1     2    1
    84   105   104    1
    85   105   106    1
    86     2     3    1
    87     4     3    2
    88   106   112   am
    89   106   107    2
    90   114   113    1
    91   112   113    1
    92     3     8   am
    93    27    28    2
    94    27    26    1
    95    26    25    1
    96   118   117   ar
    97   113   116    1
    98    11    10    2
    99     8     9    1
   100    25    18   am
   101   117   119   ar
   102   117   116    1
   103    10    16   am
   104    10     9    1
   105   129   128    1
   106    16    17    1
   107     9    12    1
   108    18    19    2
   109    18    17    1
   110    17    20    1
   111   130   128    1
   112   128   127    2
   113   123   122    2
   114    12    13    1
   115   121   120    1
   116   121   122    1
   117   121   124    1
   118    20    21    1
   119   125   124    1
   120   125   126    1
   121    13    15    1
   122    13    14    1
   123   127   126    1
   124    21    22    1
   125    23    22    1
   126    23    24    1
