@<TRIPOS>MOLECULE
tmp/1tc8A00.pdb
 126 124 0 0 0
SMALL
GASTEIGER

@<TRIPOS>ATOM
      1  N          7.7220   29.6290   -3.1670 N.3     2  LEU2       -0.1245
      2  CA         6.5210   28.8010   -3.1470 C.3     2  LEU2        0.1561
      3  C          6.7800   27.3380   -3.5160 C.2     2  LEU2        0.2260
      4  O          6.1880   26.4310   -2.9220 O.2     2  LEU2       -0.2867
      5  CB         5.4550   29.4240   -4.0610 C.3     2  LEU2        0.0270
      6  CG         4.0270   29.4230   -3.4920 C.3     2  LEU2        0.0019
      7  CD1        4.0400   29.8780   -2.0390 C.3     2  LEU2        0.0001
      8  CD2        3.1400   30.3260   -4.3190 C.3     2  LEU2        0.0001
      9  N          8.8990   25.6220   -0.7480 N.3     5  LEU5       -0.1231
     10  CA         7.9770   25.3740    0.3450 C.3     5  LEU5        0.1693
     11  C          7.2460   24.0500    0.1070 C.2     5  LEU5        0.2591
     12  O          7.0060   23.2760    1.0420 O.2     5  LEU5       -0.2718
     13  CB         6.9720   26.5180    0.4350 C.3     5  LEU5        0.0284
     14  CG         5.6860   26.2440    1.2140 C.3     5  LEU5        0.0019
     15  CD1        6.0220   25.7710    2.6100 C.3     5  LEU5        0.0001
     16  CD2        4.8340   27.5050    1.2460 C.3     5  LEU5        0.0001
     17  N          6.8970   23.7890   -1.1500 N.am    6  MET6       -0.1979
     18  CA         6.2030   22.5540   -1.4820 C.3     6  MET6        0.1605
     19  C          7.0390   21.3850   -1.0100 C.2     6  MET6        0.2287
     20  O          6.5330   20.4620   -0.3750 O.2     6  MET6       -0.2864
     21  CB         5.9840   22.4200   -2.9900 C.3     6  MET6        0.0413
     22  CG         5.2340   21.1440   -3.3530 C.3     6  MET6        0.0598
     23  SD         5.1440   20.7710   -5.1130 S.3     6  MET6       -0.1393
     24  CE         5.9740   19.1150   -5.1890 C.3     6  MET6        0.0692
     25  N          7.2510   20.6540    2.6570 N.3     9  ILE9       -0.1245
     26  CA         6.0600   19.9180    3.0170 C.3     9  ILE9        0.1561
     27  C          6.2360   18.4620    2.5810 C.2     9  ILE9        0.2260
     28  O          5.8390   17.5380    3.2890 O.2     9  ILE9       -0.2867
     29  CB         4.8170   20.5410    2.3470 C.3     9  ILE9        0.0252
     30  CG1        4.5960   21.9450    2.9160 C.3     9  ILE9        0.0019
     31  CG2        3.5950   19.6540    2.5540 C.3     9  ILE9        0.0019
     32  CD1        3.4260   22.6690    2.3330 C.3     9  ILE9        0.0001
     33  N          0.7390   17.4860   -1.6560 N.3    17  TRP17      -0.1228
     34  CA         0.5300   18.9120   -1.8920 C.3    17  TRP17       0.1722
     35  C         -0.9440   19.3610   -1.9170 C.2    17  TRP17       0.2437
     36  O         -1.3680   20.0910   -1.0190 O.2    17  TRP17      -0.2733
     37  CB         1.2600   19.2960   -3.1920 C.3    17  TRP17       0.0563
     38  CG         1.2730   20.7480   -3.5340 C.ar   17  TRP17       0.0003
     39  CD1        0.8560   21.3160   -4.7030 C.ar   17  TRP17       0.0946
     40  CD2        1.7530   21.8180   -2.7140 C.ar   17  TRP17       0.0152
     41  NE1        1.0480   22.6760   -4.6640 N.ar   17  TRP17      -0.2442
     42  CE2        1.6030   23.0120   -3.4570 C.ar   17  TRP17       0.0810
     43  CE3        2.3100   21.8840   -1.4300 C.ar   17  TRP17       0.0012
     44  CZ2        1.9760   24.2680   -2.9450 C.ar   17  TRP17       0.0191
     45  CZ3        2.6830   23.1330   -0.9230 C.ar   17  TRP17       0.0001
     46  CH2        2.5180   24.3060   -1.6850 C.ar   17  TRP17       0.0015
     47  N         -1.7410   18.9360   -2.9270 N.am   18  PRO18      -0.2729
     48  CA        -3.1600   19.3150   -3.0280 C.3    18  PRO18       0.1401
     49  C         -3.8670   19.1130   -1.7070 C.2    18  PRO18       0.2269
     50  O         -4.9640   19.6330   -1.4820 O.2    18  PRO18      -0.2865
     51  CB        -3.7020   18.3600   -4.0780 C.3    18  PRO18       0.0296
     52  CG        -2.5500   18.1820   -4.9730 C.3    18  PRO18       0.0237
     53  CD        -1.4050   17.9880   -4.0010 C.3    18  PRO18       0.0939
     54  N         -3.0300   20.2720    0.9750 N.3    20  TYR20      -0.1227
     55  CA        -3.0610   21.5290    1.6980 C.3    20  TYR20       0.1736
     56  C         -3.5250   22.7220    0.8790 C.2    20  TYR20       0.2596
     57  O         -3.9460   23.7440    1.4410 O.2    20  TYR20      -0.2718
     58  CB        -1.6770   21.8240    2.2680 C.3    20  TYR20       0.0548
     59  CG        -1.1620   20.7390    3.1780 C.ar   20  TYR20      -0.0200
     60  CD1       -0.2810   19.7650    2.7080 C.ar   20  TYR20      -0.0009
     61  CD2       -1.5650   20.6760    4.5100 C.ar   20  TYR20      -0.0009
     62  CE1        0.1880   18.7580    3.5450 C.ar   20  TYR20       0.0417
     63  CE2       -1.1040   19.6750    5.3510 C.ar   20  TYR20       0.0417
     64  CZ        -0.2260   18.7260    4.8640 C.ar   20  TYR20       0.1957
     65  OH         0.2670   17.7690    5.7080 O.3    20  TYR20      -0.2866
     66  N         -3.4520   22.5910   -0.4430 N.am   21  THR21      -0.1953
     67  CA        -3.8280   23.6750   -1.3400 C.3    21  THR21       0.1897
     68  C         -5.0960   24.4080   -0.9290 C.2    21  THR21       0.2313
     69  O         -5.1770   25.6280   -1.0550 O.2    21  THR21      -0.2863
     70  CB        -3.9380   23.1740   -2.8030 C.3    21  THR21       0.1794
     71  OG1       -2.6870   23.3950   -3.4680 O.3    21  THR21      -0.2208
     72  CG2       -5.0130   23.9140   -3.5560 C.3    21  THR21       0.0378
     73  N         -5.5280   27.5450    5.0620 N.3    27  CYS27      -0.1221
     74  CA        -4.5960   26.8670    4.1810 C.3    27  CYS27       0.1808
     75  C         -5.0190   27.2110    2.7660 C.2    27  CYS27       0.2602
     76  O         -6.1230   26.8660    2.3380 O.2    27  CYS27      -0.2717
     77  CB        -4.6400   25.3620    4.4180 C.3    27  CYS27       0.0970
     78  SG        -4.2510   24.9400    6.1420 S.3    27  CYS27      -0.0800
     79  N         -4.1420   27.9090    2.0530 N.am   28  GLY28      -0.1942
     80  CA        -4.4470   28.3280    0.6990 C.3    28  GLY28       0.2014
     81  C         -4.1580   29.8110    0.6250 C.2    28  GLY28       0.2638
     82  O         -3.6050   30.3650    1.5730 O.2    28  GLY28      -0.2714
     83  N         -4.5120   30.4600   -0.4820 N.am   29  LYS29      -0.1977
     84  CA        -4.2740   31.9020   -0.6370 C.3    29  LYS29       0.1596
     85  C         -5.1840   32.7330    0.2850 C.2    29  LYS29       0.2287
     86  O         -6.4030   32.5660    0.2920 O.2    29  LYS29      -0.2864
     87  CB        -4.4920   32.3150   -2.1020 C.3    29  LYS29       0.0298
     88  CG        -4.6040   33.8190   -2.3570 C.3    29  LYS29       0.0038
     89  CD        -3.3200   34.5550   -2.0090 C.3    29  LYS29       0.0206
     90  CE        -3.4890   36.0640   -2.1570 C.3    29  LYS29       0.1093
     91  NZ        -3.8220   36.4570   -3.5560 N.3    29  LYS29      -0.1314
     92  N         -1.5710   27.1580    9.0820 N.3    43  CYS43      -0.1235
     93  CA        -1.7040   28.0260    7.9310 C.3    43  CYS43       0.1677
     94  C         -1.8960   29.4770    8.3230 C.2    43  CYS43       0.2270
     95  O         -1.4070   30.3710    7.6430 O.2    43  CYS43      -0.2867
     96  CB        -2.8450   27.5250    7.0600 C.3    43  CYS43       0.0956
     97  SG        -2.4630   25.8400    6.4720 S.3    43  CYS43      -0.0801
     98  N          1.5760   30.7550    9.3310 N.3    46  HIS46      -0.1226
     99  CA         2.4090   30.8310    8.1350 C.3    46  HIS46       0.1752
    100  C          2.1060   32.1640    7.4640 C.2    46  HIS46       0.2596
    101  O          3.0060   32.9600    7.1890 O.2    46  HIS46      -0.2718
    102  CB         2.0990   29.6740    7.1670 C.3    46  HIS46       0.0759
    103  CG         3.0010   29.6290    5.9670 C.ar   46  HIS46       0.0818
    104  ND1        2.5430   29.8030    4.6790 N.ar   46  HIS46      -0.2268
    105  CD2        4.3400   29.4360    5.8640 C.ar   46  HIS46       0.1154
    106  CE1        3.5580   29.7180    3.8340 C.ar   46  HIS46       0.1986
    107  NE2        4.6590   29.4970    4.5270 N.ar   46  HIS46      -0.2212
    108  N          0.8220   32.3950    7.2180 N.am   47  ASP47      -0.1974
    109  CA         0.3490   33.6180    6.5990 C.3    47  ASP47       0.1709
    110  C          1.0060   34.8330    7.2380 C.2    47  ASP47       0.2293
    111  O          1.7200   35.5980    6.5860 O.2    47  ASP47      -0.2864
    112  CB        -1.1590   33.6940    6.7710 C.3    47  ASP47       0.1436
    113  CG        -1.9030   33.0810    5.6170 C.2    47  ASP47       0.3671
    114  OD1       -1.6080   31.9240    5.2390 O.co2  47  ASP47      -0.2456
    115  OD2       -2.7970   33.7720    5.0870 O.co2  47  ASP47      -0.2456
    116  N          2.6970   21.1820    9.9500 N.3    99  PHE99      -0.1241
    117  CA         1.7810   20.3430    9.1930 C.3    99  PHE99       0.1605
    118  C          1.9230   18.8790    9.5320 C.2    99  PHE99       0.2264
    119  O          0.9320   18.2000    9.7990 O.2    99  PHE99      -0.2867
    120  CB         2.0190   20.5290    7.6950 C.3    99  PHE99       0.0534
    121  CG         1.5160   21.8320    7.1660 C.ar   99  PHE99      -0.0203
    122  CD1        1.3240   22.9140    8.0190 C.ar   99  PHE99      -0.0042
    123  CD2        1.2600   21.9920    5.8110 C.ar   99  PHE99      -0.0042
    124  CE1        0.8910   24.1320    7.5340 C.ar   99  PHE99      -0.0003
    125  CE2        0.8250   23.2130    5.3110 C.ar   99  PHE99      -0.0003
    126  CZ         0.6410   24.2840    6.1800 C.ar   99  PHE99      -0.0000
@<TRIPOS>BOND
     1    24    23    1
     2    23    22    1
     3    52    51    1
     4    52    53    1
     5    39    41   ar
     6    39    38   ar
     7    41    42   ar
     8     8     6    1
     9    51    48    1
    10     5     6    1
    11     5     2    1
    12    53    47    1
    13    91    90    1
    14    72    70    1
    15    38    37    1
    16    38    40   ar
    17     3     2    1
    18     3     4    2
    19     6     7    1
    20    71    70    1
    21    42    44   ar
    22    42    40   ar
    23    22    21    1
    24    37    34    1
    25     1     2    1
    26    48    47    1
    27    48    49    1
    28    21    18    1
    29    44    46   ar
    30    47    35   am
    31    70    67    1
    32    40    43   ar
    33    88    87    1
    34    88    89    1
    35    90    89    1
    36    87    84    1
    37    35    34    1
    38    35    36    2
    39    34    33    1
    40    49    50    2
    41    46    45   ar
    42    18    17    1
    43    18    19    1
    44    43    45   ar
    45    67    68    1
    46    67    66    1
    47    17    11   am
    48    69    68    2
    49    19    20    2
    50     9    10    1
    51    84    83    1
    52    84    85    1
    53    83    81   am
    54    66    56   am
    55    11    10    1
    56    11    12    2
    57    85    86    2
    58    10    13    1
    59    13    14    1
    60    81    80    1
    61    81    82    2
    62    80    79    1
    63    56    57    2
    64    56    55    1
    65    54    55    1
    66    14    16    1
    67    14    15    1
    68    55    58    1
    69    79    75   am
    70    58    59    1
    71    32    30    1
    72    76    75    2
    73    29    31    1
    74    29    30    1
    75    29    26    1
    76    27    26    1
    77    27    28    2
    78    25    26    1
    79    60    59   ar
    80    60    62   ar
    81    75    74    1
    82    59    61   ar
    83    62    64   ar
    84   106   107   ar
    85   106   104   ar
    86    74    77    1
    87    74    73    1
    88    77    78    1
    89    61    63   ar
    90   107   105   ar
    91   104   103   ar
    92    64    63   ar
    93    64    65    1
    94   115   113   ar
    95   114   113   ar
    96   125   123   ar
    97   125   126   ar
    98   113   112    1
    99   123   121   ar
   100   105   103   ar
   101   103   102    1
   102    78    97    1
   103   126   124   ar
   104    97    96    1
   105   111   110    2
   106   109   112    1
   107   109   108    1
   108   109   110    1
   109    96    93    1
   110   121   120    1
   111   121   122   ar
   112   102    99    1
   113   101   100    2
   114   108   100   am
   115   100    99    1
   116   124   122   ar
   117    95    94    2
   118   120   117    1
   119    93    94    1
   120    93    92    1
   121    99    98    1
   122   117   118    1
   123   117   116    1
   124   118   119    2
