@<TRIPOS>MOLECULE
tmp/1tcbA02.pdb
 66 63 0 0 0
SMALL
GASTEIGER

@<TRIPOS>ATOM
      1  N          5.6170   13.1080   13.6880 N.3   221  VAL221     -0.1231
      2  CA         6.7500   12.5330   14.4110 C.3   221  VAL221      0.1692
      3  C          7.4880   13.5620   15.2560 C.2   221  VAL221      0.2592
      4  O          8.0150   14.5480   14.7370 O.2   221  VAL221     -0.2718
      5  CB         7.7680   11.8740   13.4330 C.3   221  VAL221      0.0266
      6  CG1        8.9450   11.2890   14.2060 C.3   221  VAL221      0.0020
      7  CG2        7.0890   10.7870   12.6100 C.3   221  VAL221      0.0020
      8  N          7.4880   13.3290   16.5670 N.am  222  ILE222     -0.1966
      9  CA         8.2810   14.1320   17.4920 C.3   222  ILE222      0.1727
     10  C          8.9600   13.1920   18.4640 C.2   222  ILE222      0.2616
     11  O          8.3930   12.1830   18.8680 O.2   222  ILE222     -0.2715
     12  CB         7.4570   15.1790   18.2830 C.3   222  ILE222      0.0290
     13  CG1        6.2380   14.5390   18.9390 C.3   222  ILE222      0.0022
     14  CG2        7.0600   16.3220   17.3650 C.3   222  ILE222      0.0023
     15  CD1        5.4830   15.4890   19.8440 C.3   222  ILE222      0.0001
     16  N         10.1750   13.4920   18.8130 N.am  223  ASP223     -0.1971
     17  CA        10.9190   12.5960   19.6790 C.3   223  ASP223      0.1709
     18  C         10.7700   12.9630   21.1780 C.2   223  ASP223      0.2293
     19  O          9.8900   13.7560   21.5560 O.2   223  ASP223     -0.2864
     20  CB        12.3940   12.6110   19.2480 C.3   223  ASP223      0.1436
     21  CG        13.1160   13.8590   19.7410 C.2   223  ASP223      0.3671
     22  OD1       12.7100   14.9800   19.3530 O.co2 223  ASP223     -0.2456
     23  OD2       14.0630   13.7060   20.5380 O.co2 223  ASP223     -0.2456
     24  N         12.7110   14.8080   23.1070 N.3   225  ALA225     -0.1231
     25  CA        12.9290   16.2400   23.3310 C.3   225  ALA225      0.1694
     26  C         11.8360   17.0670   22.6610 C.2   225  ALA225      0.2592
     27  O         11.4390   18.1210   23.1720 O.2   225  ALA225     -0.2718
     28  CB        14.2940   16.6560   22.7950 C.3   225  ALA225      0.0304
     29  N         11.3540   16.5720   21.5100 N.am  226  GLY226     -0.1957
     30  CA        10.3100   17.2710   20.7660 C.3   226  GLY226      0.1869
     31  C          9.0040   17.3430   21.5370 C.2   226  GLY226      0.2309
     32  O          8.2560   18.3140   21.4140 O.2   226  GLY226     -0.2863
     33  N          9.4500   20.6040   23.4430 N.3   229  THR229     -0.1218
     34  CA         9.7540   21.8690   22.7680 C.3   229  THR229      0.1862
     35  C          8.9090   22.2010   21.5290 C.2   229  THR229      0.2287
     36  O          8.9530   23.3380   21.0700 O.2   229  THR229     -0.2866
     37  CB        11.2360   21.8930   22.3520 C.3   229  THR229      0.1770
     38  OG1       11.4690   20.8380   21.4130 O.3   229  THR229     -0.2211
     39  CG2       12.1420   21.6780   23.5580 C.3   229  THR229      0.0375
     40  N          5.6800   20.0730   14.3260 N.3   260  PRO260     -0.2102
     41  CA         6.7860   19.3720   15.0160 C.3   260  PRO260      0.1504
     42  C          8.0140   20.2450   15.3320 C.2   260  PRO260      0.2576
     43  O          8.8820   19.8340   16.1040 O.2   260  PRO260     -0.2718
     44  CB         7.1270   18.2400   14.0550 C.3   260  PRO260      0.0282
     45  CG         6.8460   18.8490   12.7250 C.3   260  PRO260      0.0208
     46  CD         5.5660   19.6190   12.9240 C.3   260  PRO260      0.0893
     47  N          8.0860   21.4330   14.7350 N.am  261  LEU261     -0.1967
     48  CA         9.2100   22.3410   14.9720 C.3   261  LEU261      0.1713
     49  C          9.0640   23.0870   16.3040 C.2   261  LEU261      0.2458
     50  O          7.9510   23.2590   16.8020 O.2   261  LEU261     -0.2730
     51  CB         9.3090   23.3580   13.8290 C.3   261  LEU261      0.0310
     52  CG         9.5650   22.8000   12.4240 C.3   261  LEU261      0.0022
     53  CD1        9.5680   23.9350   11.4120 C.3   261  LEU261      0.0001
     54  CD2       10.8860   22.0520   12.3890 C.3   261  LEU261      0.0001
     55  N         10.1920   23.5430   16.9000 N.am  262  PRO262     -0.2727
     56  CA        10.1960   24.2820   18.1820 C.3   262  PRO262      0.1402
     57  C          9.1600   25.4110   18.2180 C.2   262  PRO262      0.2269
     58  O          8.8460   25.9970   17.1790 O.2   262  PRO262     -0.2865
     59  CB        11.6270   24.8130   18.2660 C.3   262  PRO262      0.0296
     60  CG        12.4090   23.7350   17.5930 C.3   262  PRO262      0.0237
     61  CD        11.5740   23.3560   16.3980 C.3   262  PRO262      0.0939
     62  N         16.3370   22.5130   19.6440 N.3   275  ALA275     -0.1245
     63  CA        16.4660   21.3790   18.7290 C.3   275  ALA275      0.1562
     64  C         17.5610   20.4190   19.1820 C.2   275  ALA275      0.2260
     65  O         17.4620   19.2160   18.9550 O.2   275  ALA275     -0.2867
     66  CB        16.7580   21.8750   17.3170 C.3   275  ALA275      0.0290
@<TRIPOS>BOND
     1    53    52    1
     2    54    52    1
     3    52    51    1
     4     7     5    1
     5    45    46    1
     6    45    44    1
     7    46    40    1
     8     5     6    1
     9     5     2    1
    10     1     2    1
    11    51    48    1
    12    44    41    1
    13    40    41    1
    14     2     3    1
    15    47    48    1
    16    47    42   am
    17     4     3    2
    18    48    49    1
    19    41    42    1
    20     3     8   am
    21    42    43    2
    22    49    50    2
    23    49    55   am
    24    61    55    1
    25    61    60    1
    26     8     9    1
    27    55    56    1
    28    58    57    2
    29    66    63    1
    30    14    12    1
    31     9    12    1
    32     9    10    1
    33    60    59    1
    34    56    57    1
    35    56    59    1
    36    12    13    1
    37    10    16   am
    38    10    11    2
    39    63    64    1
    40    63    62    1
    41    16    17    1
    42    13    15    1
    43    65    64    2
    44    20    17    1
    45    20    21    1
    46    22    21   ar
    47    17    18    1
    48    21    23   ar
    49    30    29    1
    50    30    31    1
    51    36    35    2
    52    18    19    2
    53    38    37    1
    54    32    31    2
    55    29    26   am
    56    35    34    1
    57    37    34    1
    58    37    39    1
    59    26    27    2
    60    26    25    1
    61    34    33    1
    62    28    25    1
    63    24    25    1
