@<TRIPOS>MOLECULE
tmp/1tcbA00.pdb
 94 92 0 0 0
SMALL
GASTEIGER

@<TRIPOS>ATOM
      1  N         15.9450   12.7510   53.8360 N.3    10  SER10      -0.1202
      2  CA        17.2410   12.1490   54.1150 C.3    10  SER10       0.2020
      3  C         18.3440   13.1970   54.0110 C.2    10  SER10       0.2619
      4  O         19.4210   13.0340   54.5700 O.2    10  SER10      -0.2717
      5  CB        17.5250   11.0180   53.1260 C.3    10  SER10       0.2103
      6  OG        17.7680   11.5300   51.8230 O.3    10  SER10      -0.2182
      7  N         18.0600   14.2640   53.2770 N.am   11  GLN11      -0.1965
      8  CA        19.0240   15.3360   53.0660 C.3    11  GLN11       0.1718
      9  C         18.7040   16.5470   53.9390 C.2    11  GLN11       0.2458
     10  O         17.5430   16.7830   54.2670 O.2    11  GLN11      -0.2730
     11  CB        18.9790   15.7790   51.5950 C.3    11  GLN11       0.0407
     12  CG        19.1140   14.6580   50.5760 C.3    11  GLN11       0.0908
     13  CD        20.5000   14.0680   50.5300 C.2    11  GLN11       0.2608
     14  OE1       21.4870   14.7940   50.3900 O.2    11  GLN11      -0.2717
     15  NE2       20.5840   12.7480   50.6440 N.am   11  GLN11      -0.0878
     16  N         19.7380   17.3240   54.3480 N.am   12  PRO12      -0.2727
     17  CA        19.5570   18.5420   55.1620 C.3    12  PRO12       0.1402
     18  C         18.7440   19.5730   54.3780 C.2    12  PRO12       0.2269
     19  O         18.8870   19.6700   53.1550 O.2    12  PRO12      -0.2865
     20  CB        20.9870   19.0390   55.3990 C.3    12  PRO12       0.0296
     21  CG        21.8110   17.8060   55.2440 C.3    12  PRO12       0.0237
     22  CD        21.1680   17.0550   54.1140 C.3    12  PRO12       0.0939
     23  N         21.5770   17.4090   42.0720 N.3    69  PRO69      -0.2103
     24  CA        22.8800   16.9130   41.6220 C.3    69  PRO69       0.1489
     25  C         23.0630   15.4010   41.7960 C.2    69  PRO69       0.2417
     26  O         22.4730   14.7870   42.6850 O.2    69  PRO69      -0.2734
     27  CB        23.8380   17.6930   42.5080 C.3    69  PRO69       0.0282
     28  CG        23.1050   17.7320   43.8110 C.3    69  PRO69       0.0208
     29  CD        21.6640   17.9820   43.4370 C.3    69  PRO69       0.0893
     30  N         23.8260   14.7640   40.8880 N.am   70  PRO70      -0.2729
     31  CA        24.4620   15.4280   39.7520 C.3    70  PRO70       0.1401
     32  C         23.6110   15.2650   38.4710 C.2    70  PRO70       0.2269
     33  O         23.3940   14.1480   38.0070 O.2    70  PRO70      -0.2865
     34  CB        25.7900   14.6950   39.6530 C.3    70  PRO70       0.0296
     35  CG        25.4190   13.2880   39.9820 C.3    70  PRO70       0.0237
     36  CD        24.2930   13.3680   40.9970 C.3    70  PRO70       0.0939
     37  N         21.2480   11.0500   40.1700 N.3    74  ASN74      -0.1225
     38  CA        21.2150   10.3490   41.4480 C.3    74  ASN74       0.1785
     39  C         19.8150    9.8160   41.7640 C.2    74  ASN74       0.2597
     40  O         18.8540   10.1010   41.0490 O.2    74  ASN74      -0.2718
     41  CB        21.6840   11.2760   42.5700 C.3    74  ASN74       0.1169
     42  CG        22.1260   10.5040   43.7970 C.2    74  ASN74       0.2627
     43  OD1       22.5980    9.3670   43.6880 O.2    74  ASN74      -0.2716
     44  ND2       21.9790   11.1050   44.9720 N.am   74  ASN74      -0.0877
     45  N         19.7380    9.0370   42.8400 N.am   75  ASP75      -0.1974
     46  CA        18.4970    8.4310   43.3350 C.3    75  ASP75       0.1709
     47  C         17.2660    9.3300   43.1360 C.2    75  ASP75       0.2293
     48  O         17.2360   10.4770   43.5820 O.2    75  ASP75      -0.2864
     49  CB        18.7060    8.1170   44.8290 C.3    75  ASP75       0.1436
     50  CG        17.5990    7.3240   45.5050 C.2    75  ASP75       0.3671
     51  OD1       16.5650    7.0450   44.8750 O.co2  75  ASP75      -0.2456
     52  OD2       17.7740    6.9820   46.6860 O.co2  75  ASP75      -0.2456
     53  N         15.6750   10.8620   46.1830 N.3    78  VAL78      -0.1245
     54  CA        16.3310   12.0730   46.6820 C.3    78  VAL78       0.1561
     55  C         15.9810   13.2750   45.8090 C.2    78  VAL78       0.2260
     56  O         15.7870   14.3890   46.3120 O.2    78  VAL78      -0.2867
     57  CB        17.8640   11.9020   46.7310 C.3    78  VAL78       0.0252
     58  CG1       18.5310   13.2060   47.1460 C.3    78  VAL78       0.0019
     59  CG2       18.2210   10.7980   47.7060 C.3    78  VAL78       0.0019
     60  N         13.9730   17.3130   46.7040 N.3    82  TYR82      -0.1241
     61  CA        14.1790   18.6830   46.2340 C.3    82  TYR82       0.1605
     62  C         12.8710   19.3200   45.7930 C.2    82  TYR82       0.2264
     63  O         12.6410   20.5010   46.0390 O.2    82  TYR82      -0.2867
     64  CB        15.1710   18.7230   45.0660 C.3    82  TYR82       0.0534
     65  CG        16.6150   18.6190   45.4780 C.ar   82  TYR82      -0.0201
     66  CD1       17.2170   17.3790   45.6730 C.ar   82  TYR82      -0.0009
     67  CD2       17.3760   19.7680   45.6840 C.ar   82  TYR82      -0.0009
     68  CE1       18.5490   17.2840   46.0660 C.ar   82  TYR82       0.0417
     69  CE2       18.7080   19.6860   46.0760 C.ar   82  TYR82       0.0417
     70  CZ        19.2890   18.4420   46.2680 C.ar   82  TYR82       0.1957
     71  OH        20.6050   18.3530   46.6700 O.3    82  TYR82      -0.2866
     72  N         19.3750    1.4200   43.2620 N.3   295  PRO295     -0.2102
     73  CA        19.4130    2.0190   44.6060 C.3   295  PRO295      0.1504
     74  C         18.3130    1.4390   45.4950 C.2   295  PRO295      0.2575
     75  O         17.2050    1.1580   45.0200 O.2   295  PRO295     -0.2718
     76  CB        19.1780    3.5020   44.3350 C.3   295  PRO295      0.0282
     77  CG        19.7620    3.6890   42.9800 C.3   295  PRO295      0.0208
     78  CD        19.3470    2.4610   42.2180 C.3   295  PRO295      0.0893
     79  N         18.6190    1.2480   46.7790 N.am  296  ASP296     -0.1974
     80  CA        17.6340    0.7070   47.7080 C.3   296  ASP296      0.1708
     81  C         16.4580    1.6550   47.8850 C.2   296  ASP296      0.2293
     82  O         16.6160    2.8780   47.8680 O.2   296  ASP296     -0.2864
     83  CB        18.2520    0.4530   49.0880 C.3   296  ASP296      0.1436
     84  CG        19.3710   -0.5690   49.1020 C.2   296  ASP296      0.3671
     85  OD1       19.3410   -1.5170   48.2930 O.co2 296  ASP296     -0.2456
     86  OD2       20.2840   -0.4220   49.9390 O.co2 296  ASP296     -0.2456
     87  N         13.6480    3.5680   50.0020 N.3   298  MET298     -0.1245
     88  CA        13.6060    4.0760   51.3520 C.3   298  MET298      0.1570
     89  C         12.5050    3.3640   52.1270 C.2   298  MET298      0.2261
     90  O         11.5830    2.8080   51.5240 O.2   298  MET298     -0.2867
     91  CB        13.4290    5.5890   51.3420 C.3   298  MET298      0.0387
     92  CG        14.7200    6.2990   50.9640 C.3   298  MET298      0.0595
     93  SD        14.6300    8.0740   51.1350 S.3   298  MET298     -0.1393
     94  CE        16.0050    8.5660   50.0890 C.3   298  MET298      0.0692
@<TRIPOS>BOND
     1    33    32    2
     2    32    31    1
     3    34    31    1
     4    34    35    1
     5    31    30    1
     6    35    36    1
     7    37    38    1
     8    30    36    1
     9    30    25   am
    10    40    39    2
    11    38    39    1
    12    38    41    1
    13    24    25    1
    14    24    23    1
    15    24    27    1
    16    39    45   am
    17    25    26    2
    18    23    29    1
    19    78    77    1
    20    78    72    1
    21    27    28    1
    22    41    42    1
    23    45    46    1
    24    77    76    1
    25    47    46    1
    26    47    48    2
    27    72    73    1
    28    46    49    1
    29    29    28    1
    30    43    42    2
    31    42    44   am
    32    76    73    1
    33    73    74    1
    34    49    50    1
    35    51    50   ar
    36    75    74    2
    37    64    65    1
    38    64    61    1
    39    65    66   ar
    40    65    67   ar
    41    74    79   am
    42    50    52   ar
    43    66    68   ar
    44    67    69   ar
    45    62    63    2
    46    62    61    1
    47    55    56    2
    48    55    54    1
    49    68    70   ar
    50    69    70   ar
    51    53    54    1
    52    61    60    1
    53    70    71    1
    54    54    57    1
    55    57    58    1
    56    57    59    1
    57    79    80    1
    58    80    81    1
    59    80    83    1
    60    82    81    2
    61    85    84   ar
    62    83    84    1
    63    84    86   ar
    64    87    88    1
    65    94    93    1
    66    14    13    2
    67    13    12    1
    68    13    15   am
    69    12    11    1
    70    92    93    1
    71    92    91    1
    72    91    88    1
    73    88    89    1
    74    90    89    2
    75    11     8    1
    76     6     5    1
    77     8     7    1
    78     8     9    1
    79     5     2    1
    80    19    18    2
    81     7     3   am
    82     1     2    1
    83     9    10    2
    84     9    16   am
    85     3     2    1
    86     3     4    2
    87    22    16    1
    88    22    21    1
    89    16    17    1
    90    18    17    1
    91    17    20    1
    92    21    20    1
