@<TRIPOS>MOLECULE
tmp/1tcoA00.pdb
 89 89 0 0 0
SMALL
GASTEIGER

@<TRIPOS>ATOM
      1  N         74.1150   51.5030   49.0870 N.3   321  TYR321     -0.1241
      2  CA        72.7990   51.2100   49.6380 C.3   321  TYR321      0.1605
      3  C         72.6910   51.4320   51.1550 C.2   321  TYR321      0.2264
      4  O         73.5280   50.9790   51.9370 O.2   321  TYR321     -0.2867
      5  CB        72.3870   49.7610   49.3050 C.3   321  TYR321      0.0534
      6  CG        70.9420   49.4210   49.6620 C.ar  321  TYR321     -0.0201
      7  CD1       69.8770   50.1200   49.0830 C.ar  321  TYR321     -0.0009
      8  CD2       70.6440   48.4100   50.5770 C.ar  321  TYR321     -0.0009
      9  CE1       68.5750   49.8270   49.4060 C.ar  321  TYR321      0.0417
     10  CE2       69.3390   48.1090   50.9020 C.ar  321  TYR321      0.0417
     11  CZ        68.3110   48.8270   50.3150 C.ar  321  TYR321      0.1957
     12  OH        67.0000   48.5950   50.6470 O.3   321  TYR321     -0.2866
     13  N         69.6400   51.0620   54.2220 N.3   323  LEU323     -0.1231
     14  CA        68.2890   50.5650   54.4790 C.3   323  LEU323      0.1678
     15  C         67.4000   51.7670   54.7800 C.2   323  LEU323      0.2434
     16  O         67.8950   52.8350   55.1630 O.2   323  LEU323     -0.2733
     17  CB        68.2590   49.5900   55.6610 C.3   323  LEU323      0.0284
     18  CG        68.5720   48.1090   55.3990 C.3   323  LEU323      0.0019
     19  CD1       68.7240   47.3680   56.7190 C.3   323  LEU323      0.0001
     20  CD2       67.4760   47.4760   54.5670 C.3   323  LEU323      0.0001
     21  N         66.0810   51.6330   54.5570 N.am  324  PRO324     -0.2729
     22  CA        65.1660   52.7450   54.8310 C.3   324  PRO324      0.1401
     23  C         65.4310   53.3200   56.2260 C.2   324  PRO324      0.2269
     24  O         65.7090   52.5740   57.1690 O.2   324  PRO324     -0.2865
     25  CB        63.7950   52.0740   54.7620 C.3   324  PRO324      0.0296
     26  CG        63.9970   51.0300   53.7060 C.3   324  PRO324      0.0237
     27  CD        65.3500   50.4570   54.0460 C.3   324  PRO324      0.0939
     28  N         68.1650   52.3630   59.1910 N.3   327  MET327     -0.1245
     29  CA        67.8920   51.2410   60.0700 C.3   327  MET327      0.1570
     30  C         68.9760   50.2090   59.8500 C.2   327  MET327      0.2261
     31  O         69.4270   50.0160   58.7220 O.2   327  MET327     -0.2867
     32  CB        66.5120   50.6810   59.7110 C.3   327  MET327      0.0387
     33  CG        66.0620   49.4680   60.4530 C.3   327  MET327      0.0595
     34  SD        64.4830   48.9540   59.7470 S.3   327  MET327     -0.1393
     35  CE        64.7850   49.1360   57.9930 C.3   327  MET327      0.0692
     36  N         66.2950   45.4550   61.3550 N.3   332  TRP332     -0.1227
     37  CA        65.6420   45.1250   60.1000 C.3   332  TRP332      0.1737
     38  C         65.1810   43.6660   60.0270 C.2   332  TRP332      0.2596
     39  O         64.0480   43.3770   59.6330 O.2   332  TRP332     -0.2718
     40  CB        66.6230   45.4290   58.9510 C.3   332  TRP332      0.0564
     41  CG        66.1540   45.0800   57.5630 C.ar  332  TRP332      0.0003
     42  CD1       64.9900   45.4810   56.9550 C.ar  332  TRP332      0.0946
     43  CD2       66.8450   44.2720   56.6010 C.ar  332  TRP332      0.0152
     44  NE1       64.9210   44.9740   55.6790 N.ar  332  TRP332     -0.2442
     45  CE2       66.0440   44.2280   55.4380 C.ar  332  TRP332      0.0810
     46  CE3       68.0670   43.5810   56.6190 C.ar  332  TRP332      0.0012
     47  CZ2       66.4260   43.5150   54.2910 C.ar  332  TRP332      0.0191
     48  CZ3       68.4480   42.8700   55.4770 C.ar  332  TRP332      0.0001
     49  CH2       67.6270   42.8460   54.3300 C.ar  332  TRP332      0.0015
     50  N         66.0650   42.7530   60.4130 N.am  333  SER333     -0.1952
     51  CA        65.7820   41.3300   60.3450 C.3   333  SER333      0.1924
     52  C         65.0510   40.7150   61.5140 C.2   333  SER333      0.2314
     53  O         64.3180   39.7360   61.3320 O.2   333  SER333     -0.2863
     54  CB        67.0730   40.5550   60.1300 C.3   333  SER333      0.2116
     55  OG        68.0190   40.8870   61.1280 O.3   333  SER333     -0.2180
     56  N         62.2490   41.2990   63.5140 N.3   335  PRO335     -0.2102
     57  CA        60.8270   40.9360   63.5020 C.3   335  PRO335      0.1504
     58  C         60.5570   39.6850   62.6540 C.2   335  PRO335      0.2576
     59  O         59.7360   38.8410   63.0070 O.2   335  PRO335     -0.2718
     60  CB        60.1700   42.1790   62.9170 C.3   335  PRO335      0.0282
     61  CG        61.0980   43.2920   63.3730 C.3   335  PRO335      0.0208
     62  CD        62.4450   42.6980   63.0990 C.3   335  PRO335      0.0893
     63  N         61.2920   39.5450   61.5610 N.am  336  PHE336     -0.1963
     64  CA        61.1260   38.4030   60.6900 C.3   336  PHE336      0.1771
     65  C         61.7120   37.1600   61.3530 C.2   336  PHE336      0.2619
     66  O         61.1390   36.0710   61.2630 O.2   336  PHE336     -0.2715
     67  CB        61.7840   38.6660   59.3320 C.3   336  PHE336      0.0574
     68  CG        61.4910   37.6110   58.3020 C.ar  336  PHE336     -0.0200
     69  CD1       60.1750   37.3200   57.9420 C.ar  336  PHE336     -0.0042
     70  CD2       62.5260   36.8780   57.7270 C.ar  336  PHE336     -0.0042
     71  CE1       59.8980   36.3130   57.0290 C.ar  336  PHE336     -0.0003
     72  CE2       62.2600   35.8700   56.8140 C.ar  336  PHE336     -0.0003
     73  CZ        60.9450   35.5830   56.4640 C.ar  336  PHE336     -0.0000
     74  N         62.8420   37.3280   62.0310 N.am  337  VAL337     -0.1977
     75  CA        63.4960   36.2220   62.7270 C.3   337  VAL337      0.1596
     76  C         62.5640   35.7160   63.8260 C.2   337  VAL337      0.2287
     77  O         62.3900   34.5120   64.0030 O.2   337  VAL337     -0.2864
     78  CB        64.8620   36.6470   63.3370 C.3   337  VAL337      0.0276
     79  CG1       65.3460   35.6080   64.3300 C.3   337  VAL337      0.0022
     80  CG2       65.9060   36.7960   62.2360 C.3   337  VAL337      0.0022
     81  N         59.2090   36.0250   63.9850 N.3   339  GLU339     -0.1245
     82  CA        58.0670   35.4140   63.3030 C.3   339  GLU339      0.1567
     83  C         58.2650   33.9830   62.8440 C.2   339  GLU339      0.2260
     84  O         57.4650   33.0970   63.1320 O.2   339  GLU339     -0.2867
     85  CB        57.6830   36.2480   62.0900 C.3   339  GLU339      0.0388
     86  CG        56.5810   35.6170   61.2890 C.3   339  GLU339      0.1160
     87  CD        56.3640   36.2830   59.9680 C.2   339  GLU339      0.3649
     88  OE1       57.2930   36.2690   59.1350 O.co2 339  GLU339     -0.2457
     89  OE2       55.2490   36.8010   59.7580 O.co2 339  GLU339     -0.2457
@<TRIPOS>BOND
     1     7     9   ar
     2     7     6   ar
     3     1     2    1
     4     5     2    1
     5     5     6    1
     6     9    11   ar
     7     2     3    1
     8     6     8   ar
     9    11    12    1
    10    11    10   ar
    11     8    10   ar
    12     3     4    2
    13    26    27    1
    14    26    25    1
    15    27    21    1
    16    13    14    1
    17    47    49   ar
    18    47    45   ar
    19    49    48   ar
    20    14    15    1
    21    14    17    1
    22    21    15   am
    23    21    22    1
    24    20    18    1
    25    25    22    1
    26    15    16    2
    27    22    23    1
    28    18    17    1
    29    18    19    1
    30    45    44   ar
    31    45    43   ar
    32    48    46   ar
    33    44    42   ar
    34    23    24    2
    35    73    72   ar
    36    73    71   ar
    37    43    46   ar
    38    43    41   ar
    39    72    70   ar
    40    42    41   ar
    41    71    69   ar
    42    41    40    1
    43    70    68   ar
    44    69    68   ar
    45    35    34    1
    46    68    67    1
    47    31    30    2
    48    40    37    1
    49    88    87   ar
    50    28    29    1
    51    67    64    1
    52    39    38    2
    53    32    29    1
    54    32    33    1
    55    34    33    1
    56    89    87   ar
    57    30    29    1
    58    87    86    1
    59    38    37    1
    60    38    50   am
    61    37    36    1
    62    54    51    1
    63    54    55    1
    64    51    50    1
    65    51    52    1
    66    64    65    1
    67    64    63    1
    68    66    65    2
    69    86    85    1
    70    53    52    2
    71    65    74   am
    72    63    58   am
    73    74    75    1
    74    85    82    1
    75    80    78    1
    76    58    59    2
    77    58    57    1
    78    75    78    1
    79    75    76    1
    80    83    84    2
    81    83    82    1
    82    60    61    1
    83    60    57    1
    84    62    61    1
    85    62    56    1
    86    82    81    1
    87    78    79    1
    88    57    56    1
    89    76    77    2
