@<TRIPOS>MOLECULE
tmp/1tcoB00.pdb
 101 95 0 0 0
SMALL
GASTEIGER

@<TRIPOS>ATOM
      1  N         61.7630    8.6120   72.9830 N.3     1  GLY1       -0.1210
      2  CA        61.7840    7.5140   71.9610 C.3     1  GLY1        0.1956
      3  C         60.5780    6.6300   71.9310 C.2     1  GLY1        0.2612
      4  O         60.1160    6.4050   70.8640 O.2     1  GLY1       -0.2717
      5  N         60.0550    6.2020   73.0870 N.am    2  ASN2       -0.1960
      6  CA        58.8390    5.3340   73.2470 C.3     2  ASN2        0.1819
      7  C         59.1170    4.6240   74.5900 C.2     2  ASN2        0.2621
      8  O         58.3250    4.6950   75.5540 O.2     2  ASN2       -0.2715
      9  CB        58.7930    4.2150   72.1710 C.3     2  ASN2        0.1195
     10  CG        57.5920    4.2960   71.2880 C.2     2  ASN2        0.2630
     11  OD1       56.7010    5.1860   71.3990 O.2     2  ASN2       -0.2716
     12  ND2       57.5520    3.3770   70.3720 N.am    2  ASN2       -0.0877
     13  N         60.2830    3.9540   74.6360 N.am    3  GLU3       -0.1977
     14  CA        60.6730    3.1770   75.8090 C.3     3  GLU3        0.1602
     15  C         61.8660    3.6140   76.6500 C.2     3  GLU3        0.2287
     16  O         62.4670    4.6660   76.4430 O.2     3  GLU3       -0.2864
     17  CB        60.8660    1.7080   75.4390 C.3     3  GLU3        0.0415
     18  CG        59.5400    0.8990   75.2930 C.3     3  GLU3        0.1163
     19  CD        59.7960   -0.5650   75.0430 C.2     3  GLU3        0.3649
     20  OE1       60.8360   -0.9280   74.4400 O.co2   3  GLU3       -0.2457
     21  OE2       58.9410   -1.3720   75.4260 O.co2   3  GLU3       -0.2457
     22  N         66.8220   11.1370   82.1380 N.3     8  LEU8       -0.1245
     23  CA        67.1840   12.3300   81.3860 C.3     8  LEU8        0.1561
     24  C         67.0150   13.4590   82.3900 C.2     8  LEU8        0.2260
     25  O         65.9920   13.5290   83.0870 O.2     8  LEU8       -0.2867
     26  CB        66.2400   12.5860   80.1960 C.3     8  LEU8        0.0270
     27  CG        65.9920   11.4340   79.2380 C.3     8  LEU8        0.0019
     28  CD1       64.9370   11.8870   78.2600 C.3     8  LEU8        0.0001
     29  CD2       67.2920   11.0440   78.5180 C.3     8  LEU8        0.0001
     30  N         58.7980   24.3170   82.2490 N.3    14  PHE14      -0.1241
     31  CA        57.6820   23.3750   82.1810 C.3    14  PHE14       0.1605
     32  C         57.3340   22.5610   83.4160 C.2    14  PHE14       0.2264
     33  O         58.2130   22.1450   84.1800 O.2    14  PHE14      -0.2867
     34  CB        57.8760   22.4310   80.9910 C.3    14  PHE14       0.0534
     35  CG        58.1320   23.1430   79.6860 C.ar   14  PHE14      -0.0203
     36  CD1       57.2930   24.1680   79.2590 C.ar   14  PHE14      -0.0042
     37  CD2       59.2180   22.7940   78.8920 C.ar   14  PHE14      -0.0042
     38  CE1       57.5260   24.8310   78.0690 C.ar   14  PHE14      -0.0003
     39  CE2       59.4620   23.4540   77.6940 C.ar   14  PHE14      -0.0003
     40  CZ        58.6120   24.4760   77.2820 C.ar   14  PHE14      -0.0000
     41  N         55.0800   19.1990   85.1050 N.3    16  ALA16      -0.1245
     42  CA        54.9240   17.7860   84.7750 C.3    16  ALA16       0.1562
     43  C         54.0600   17.4100   83.5560 C.2    16  ALA16       0.2260
     44  O         54.3770   16.4480   82.8520 O.2    16  ALA16      -0.2867
     45  CB        54.4620   17.0270   86.0020 C.3    16  ALA16       0.0290
     46  N         55.6240   18.7860   79.9920 N.3    19  ILE19      -0.1231
     47  CA        56.7010   17.9150   79.5440 C.3    19  ILE19       0.1692
     48  C         56.0850   16.6570   78.9270 C.2    19  ILE19       0.2591
     49  O         56.5660   16.1690   77.9050 O.2    19  ILE19      -0.2718
     50  CB        57.6520   17.5270   80.7040 C.3    19  ILE19       0.0266
     51  CG1       58.2910   18.7880   81.2830 C.3    19  ILE19       0.0019
     52  CG2       58.7440   16.5660   80.2120 C.3    19  ILE19       0.0020
     53  CD1       59.2760   18.5160   82.3700 C.3    19  ILE19       0.0001
     54  N         55.0090   16.1460   79.5270 N.am   20  LYS20      -0.1980
     55  CA        54.3460   14.9530   78.9950 C.3    20  LYS20       0.1596
     56  C         53.8770   15.2730   77.5860 C.2    20  LYS20       0.2287
     57  O         54.2500   14.5940   76.6300 O.2    20  LYS20      -0.2864
     58  CB        53.1570   14.5300   79.8690 C.3    20  LYS20       0.0298
     59  CG        53.5520   14.1600   81.2980 C.3    20  LYS20       0.0038
     60  CD        52.4030   13.5550   82.0990 C.3    20  LYS20       0.0206
     61  CE        52.7870   13.3220   83.5640 C.3    20  LYS20       0.1093
     62  NZ        52.6420   14.5340   84.4160 N.3    20  LYS20      -0.1314
     63  N         56.4450   15.6160   75.2670 N.3    23  GLY23      -0.1225
     64  CA        56.9860   14.2780   75.1070 C.3    23  GLY23       0.1811
     65  C         56.2720   13.5160   74.0100 C.2    23  GLY23       0.2280
     66  O         56.8910   12.7320   73.2760 O.2    23  GLY23      -0.2866
     67  N         57.3880   15.1130   70.6040 N.3    26  PHE26      -0.1227
     68  CA        58.6970   14.5390   70.2820 C.3    26  PHE26       0.1736
     69  C         58.5050   13.1040   69.7990 C.2    26  PHE26       0.2595
     70  O         59.2950   12.5960   69.0030 O.2    26  PHE26      -0.2718
     71  CB        59.6040   14.5490   71.5160 C.3    26  PHE26       0.0547
     72  CG        61.0340   14.1880   71.2300 C.ar   26  PHE26      -0.0202
     73  CD1       61.9600   15.1720   70.9160 C.ar   26  PHE26      -0.0042
     74  CD2       61.4580   12.8690   71.3050 C.ar   26  PHE26      -0.0042
     75  CE1       63.2960   14.8500   70.6820 C.ar   26  PHE26      -0.0003
     76  CE2       62.7830   12.5300   71.0740 C.ar   26  PHE26      -0.0003
     77  CZ        63.7080   13.5260   70.7610 C.ar   26  PHE26      -0.0000
     78  N         57.4600   12.4560   70.3090 N.am   27  LYS27      -0.1980
     79  CA        57.1300   11.0910   69.9210 C.3    27  LYS27       0.1596
     80  C         56.7510   11.0300   68.4430 C.2    27  LYS27       0.2287
     81  O         57.4350   10.3740   67.6620 O.2    27  LYS27      -0.2864
     82  CB        55.9910   10.5360   70.7760 C.3    27  LYS27       0.0298
     83  CG        56.4270    9.7630   72.0300 C.3    27  LYS27       0.0038
     84  CD        55.1860    9.1400   72.6820 C.3    27  LYS27       0.0206
     85  CE        55.5150    8.2070   73.8400 C.3    27  LYS27       0.1093
     86  NZ        54.2780    7.4790   74.2580 N.3    27  LYS27      -0.1314
     87  N         65.0250    8.0180   69.2060 N.3    35  GLY35      -0.1225
     88  CA        65.0990    8.7450   70.4600 C.3    35  GLY35       0.1811
     89  C         65.6130   10.1560   70.2460 C.2    35  GLY35       0.2280
     90  O         65.2530   11.0750   70.9810 O.2    35  GLY35      -0.2866
     91  N         65.6810   14.6170   73.2070 N.3    71  PHE71      -0.1241
     92  CA        64.6010   15.1120   74.0620 C.3    71  PHE71       0.1605
     93  C         64.9950   16.2300   75.0280 C.2    71  PHE71       0.2264
     94  O         64.2770   17.2350   75.1420 O.2    71  PHE71      -0.2867
     95  CB        63.9370   13.9800   74.8420 C.3    71  PHE71       0.0534
     96  CG        62.6770   14.4000   75.5310 C.ar   71  PHE71      -0.0203
     97  CD1       61.6740   15.0460   74.8210 C.ar   71  PHE71      -0.0042
     98  CD2       62.5100   14.1860   76.8900 C.ar   71  PHE71      -0.0042
     99  CE1       60.5280   15.4720   75.4480 C.ar   71  PHE71      -0.0003
    100  CE2       61.3710   14.6070   77.5310 C.ar   71  PHE71      -0.0003
    101  CZ        60.3730   15.2550   76.8070 C.ar   71  PHE71      -0.0000
@<TRIPOS>BOND
     1    81    80    2
     2    80    79    1
     3    70    69    2
     4    87    88    1
     5    69    68    1
     6    69    78   am
     7    79    78    1
     8    79    82    1
     9    89    88    1
    10    89    90    2
    11    68    67    1
    12    68    71    1
    13    12    10   am
    14    75    77   ar
    15    75    73   ar
    16    77    76   ar
    17    82    83    1
    18     4     3    2
    19    73    72   ar
    20    76    74   ar
    21    72    74   ar
    22    72    71    1
    23    10    11    2
    24    10     9    1
    25     3     2    1
    26     3     5   am
    27     2     1    1
    28    83    84    1
    29     9     6    1
    30    84    85    1
    31     5     6    1
    32    91    92    1
    33     6     7    1
    34    66    65    2
    35    85    86    1
    36    65    64    1
    37    92    95    1
    38    92    93    1
    39    20    19   ar
    40     7    13   am
    41     7     8    2
    42    13    14    1
    43    97    99   ar
    44    97    96   ar
    45    95    96    1
    46    93    94    2
    47    19    18    1
    48    19    21   ar
    49    64    63    1
    50    18    17    1
    51    17    14    1
    52    99   101   ar
    53    96    98   ar
    54    14    15    1
    55    16    15    2
    56    57    56    2
    57   101   100   ar
    58    98   100   ar
    59    40    39   ar
    60    40    38   ar
    61    56    55    1
    62    39    37   ar
    63    49    48    2
    64    38    36   ar
    65    28    27    1
    66    29    27    1
    67    37    35   ar
    68    48    54   am
    69    48    47    1
    70    55    54    1
    71    55    58    1
    72    27    26    1
    73    36    35   ar
    74    47    46    1
    75    47    50    1
    76    35    34    1
    77    58    59    1
    78    26    23    1
    79    52    50    1
    80    50    51    1
    81    34    31    1
    82    51    53    1
    83    59    60    1
    84    23    22    1
    85    23    24    1
    86    60    61    1
    87    31    30    1
    88    31    32    1
    89    24    25    2
    90    44    43    2
    91    32    33    2
    92    43    42    1
    93    61    62    1
    94    42    41    1
    95    42    45    1
