@<TRIPOS>MOLECULE
tmp/1tcsA00.pdb
 212 208 0 0 0
SMALL
GASTEIGER

@<TRIPOS>ATOM
      1  N         12.2160   -0.7220   35.2250 N.3    70  TYR70      -0.1227
      2  CA        13.3480   -0.4760   36.1440 C.3    70  TYR70       0.1736
      3  C         13.3290    0.9910   36.5440 C.2    70  TYR70       0.2592
      4  O         13.1100    1.9280   35.7610 O.2    70  TYR70      -0.2718
      5  CB        14.7530   -0.7220   35.5130 C.3    70  TYR70       0.0548
      6  CG        15.1450   -2.1200   35.2010 C.ar   70  TYR70      -0.0200
      7  CD1       14.2960   -3.1800   35.2570 C.ar   70  TYR70      -0.0009
      8  CD2       16.4350   -2.3970   34.7140 C.ar   70  TYR70      -0.0009
      9  CE1       14.5920   -4.4700   34.9130 C.ar   70  TYR70       0.0417
     10  CE2       16.7960   -3.6950   34.2820 C.ar   70  TYR70       0.0417
     11  CZ        15.8630   -4.7240   34.4340 C.ar   70  TYR70       0.1957
     12  OH        16.2620   -6.0140   34.0740 O.3    70  TYR70      -0.2866
     13  N         13.4980    1.1680   37.8550 N.am   71  ILE71      -0.2033
     14  CA        13.6090    2.5580   38.3580 C.3    71  ILE71       0.1282
     15  C         14.9720    3.1410   37.9990 C.3    71  ILE71       0.2035
     16  O         15.9430    2.3350   38.2550 O.3    71  ILE71      -0.2185
     17  CB        13.3710    2.5420   39.9410 C.3    71  ILE71       0.0226
     18  CG1       11.8510    2.3660   40.1490 C.3    71  ILE71       0.0018
     19  CG2       13.8050    3.9480   40.5720 C.3    71  ILE71       0.0018
     20  CD1       11.4290    2.1580   41.6440 C.3    71  ILE71       0.0001
     21  N         20.8340    5.9600   39.8290 N.3    83  PHE83      -0.1241
     22  CA        21.7020    4.7700   40.0450 C.3    83  PHE83       0.1605
     23  C         22.9730    4.8770   39.1740 C.2    83  PHE83       0.2264
     24  O         23.0260    5.5000   38.0950 O.2    83  PHE83      -0.2867
     25  CB        21.0110    3.4870   39.7090 C.3    83  PHE83       0.0534
     26  CG        19.9550    3.0720   40.7160 C.ar   83  PHE83      -0.0203
     27  CD1       20.3850    2.6810   41.9710 C.ar   83  PHE83      -0.0042
     28  CD2       18.6310    3.0260   40.2850 C.ar   83  PHE83      -0.0042
     29  CE1       19.3750    2.2270   42.8750 C.ar   83  PHE83      -0.0003
     30  CE2       17.6400    2.5580   41.1160 C.ar   83  PHE83      -0.0003
     31  CZ        18.0240    2.1740   42.4510 C.ar   83  PHE83      -0.0000
     32  N         24.7580    3.4030   36.8080 N.3    85  GLU85      -0.1245
     33  CA        24.6620    2.4500   35.6970 C.3    85  GLU85       0.1567
     34  C         24.3050    3.2110   34.4340 C.2    85  GLU85       0.2260
     35  O         23.5560    4.1940   34.3860 O.2    85  GLU85      -0.2867
     36  CB        23.6440    1.3520   36.0640 C.3    85  GLU85       0.0388
     37  CG        22.1930    1.6900   36.1200 C.3    85  GLU85       0.1160
     38  CD        21.1990    0.8760   36.8800 C.2    85  GLU85       0.3649
     39  OE1       21.3910    0.1080   37.7910 O.co2  85  GLU85      -0.2457
     40  OE2       19.9900    1.1210   36.6080 O.co2  85  GLU85      -0.2457
     41  N         21.1530   -0.3070   40.4370 N.3   109  GLY109     -0.1210
     42  CA        19.8970   -0.7760   40.8200 C.3   109  GLY109      0.1956
     43  C         19.6210   -2.2270   41.0200 C.2   109  GLY109      0.2612
     44  O         18.4690   -2.5190   41.2680 O.2   109  GLY109     -0.2717
     45  N         20.6000   -3.1490   40.9880 N.am  110  ASN110     -0.1960
     46  CA        20.2160   -4.5470   41.1720 C.3   110  ASN110      0.1819
     47  C         20.2580   -4.9930   42.6270 C.2   110  ASN110      0.2618
     48  O         21.0180   -4.4240   43.4740 O.2   110  ASN110     -0.2715
     49  CB        20.9300   -5.4840   40.2290 C.3   110  ASN110      0.1195
     50  CG        22.3510   -5.6380   40.7640 C.2   110  ASN110      0.2630
     51  OD1       22.9110   -4.5320   40.9080 O.2   110  ASN110     -0.2716
     52  ND2       22.7880   -6.8670   41.0360 N.am  110  ASN110     -0.0877
     53  N         19.4520   -6.0060   42.8670 N.am  111  TYR111     -0.2027
     54  CA        19.2530   -6.4440   44.2730 C.3   111  TYR111      0.1325
     55  C         20.5420   -6.9510   44.8810 C.3   111  TYR111      0.2039
     56  O         20.6000   -6.8440   46.0720 O.3   111  TYR111     -0.2185
     57  CB        18.2160   -7.6120   44.4010 C.3   111  TYR111      0.0507
     58  CG        16.7760   -7.2350   44.1450 C.ar  111  TYR111     -0.0202
     59  CD1       16.3160   -6.0760   44.7690 C.ar  111  TYR111     -0.0009
     60  CD2       15.9470   -8.0190   43.3540 C.ar  111  TYR111     -0.0009
     61  CE1       14.9720   -5.6760   44.5530 C.ar  111  TYR111      0.0417
     62  CE2       14.5800   -7.6430   43.1620 C.ar  111  TYR111      0.0417
     63  CZ        14.1660   -6.4830   43.7860 C.ar  111  TYR111      0.1957
     64  OH        12.8340   -6.1290   43.6660 O.3   111  TYR111     -0.2866
     65  N         11.2560   -0.2920   45.1200 N.3   155  ILE155     -0.1245
     66  CA        11.1910   -1.0980   43.9140 C.3   155  ILE155      0.1561
     67  C         10.1310   -2.1890   44.0490 C.2   155  ILE155      0.2260
     68  O          9.3670   -2.4200   43.0500 O.2   155  ILE155     -0.2867
     69  CB        12.5880   -1.8430   43.6820 C.3   155  ILE155      0.0252
     70  CG1       13.5630   -0.6450   43.2100 C.3   155  ILE155      0.0019
     71  CG2       12.4690   -2.8650   42.4750 C.3   155  ILE155      0.0019
     72  CD1       15.0300   -0.9290   43.4900 C.3   155  ILE155      0.0001
     73  N          7.6590   -1.2440   40.7560 N.3   159  SER159     -0.1202
     74  CA         7.8740   -2.2200   39.6690 C.3   159  SER159      0.2020
     75  C          7.4090   -3.6100   39.8770 C.2   159  SER159      0.2618
     76  O          6.9370   -4.3400   39.0060 O.2   159  SER159     -0.2717
     77  CB         9.3940   -2.3580   39.4450 C.3   159  SER159      0.2103
     78  OG         9.9350   -1.0290   39.3020 O.3   159  SER159     -0.2182
     79  N          7.7430   -4.2400   41.1160 N.am  160  GLU160     -0.1979
     80  CA         7.4550   -5.6220   41.2840 C.3   160  GLU160      0.1602
     81  C          6.0080   -5.9070   41.4360 C.2   160  GLU160      0.2287
     82  O          5.4940   -6.9280   40.8760 O.2   160  GLU160     -0.2864
     83  CB         8.3000   -6.2520   42.4990 C.3   160  GLU160      0.0415
     84  CG         9.8090   -6.0830   42.3710 C.3   160  GLU160      0.1163
     85  CD        10.5260   -6.9130   41.3480 C.2   160  GLU160      0.3649
     86  OE1        9.8700   -7.4200   40.4290 O.co2 160  GLU160     -0.2457
     87  OE2       11.6860   -7.1740   41.3880 O.co2 160  GLU160     -0.2457
     88  N          4.5840   -5.8840   37.9750 N.3   163  ARG163     -0.1182
     89  CA         4.8220   -7.1200   37.1600 C.3   163  ARG163      0.1910
     90  C          3.9620   -8.2720   37.5670 C.2   163  ARG163      0.2634
     91  O          3.7080   -9.2170   36.7360 O.2   163  ARG163     -0.2714
     92  CB         6.2960   -7.5890   37.2390 C.2   163  ARG163      0.0007
     93  CG         7.3440   -6.6130   36.7680 C.2   163  ARG163      0.0176
     94  CD         8.7720   -6.7900   37.1750 C.3   163  ARG163      0.2464
     95  NE         9.6090   -5.6840   36.5520 N.pl3 163  ARG163     -0.0815
     96  CZ        10.7190   -5.2150   37.1190 C.cat 163  ARG163      0.5349
     97  NH1       11.0030   -5.6460   38.3820 N.pl3 163  ARG163      0.1354
     98  NH2       11.6400   -4.4700   36.6240 N.pl3 163  ARG163      0.1354
     99  N          3.5820   -8.3950   38.8540 N.am  164  TYR164     -0.1973
    100  CA         2.7990   -9.5780   39.2620 C.3   164  TYR164      0.1639
    101  C          1.6240   -9.3020   40.1970 C.2   164  TYR164      0.2290
    102  O          1.7310   -8.5870   41.1720 O.2   164  TYR164     -0.2864
    103  CB         3.7580  -10.4230   40.1970 C.3   164  TYR164      0.0560
    104  CG         4.8450  -11.1370   39.4530 C.ar  164  TYR164     -0.0198
    105  CD1        4.5950  -12.3430   38.8060 C.ar  164  TYR164     -0.0009
    106  CD2        6.1270  -10.5690   39.4140 C.ar  164  TYR164     -0.0009
    107  CE1        5.6620  -13.0350   38.1910 C.ar  164  TYR164      0.0417
    108  CE2        7.1410  -11.2370   38.7820 C.ar  164  TYR164      0.0417
    109  CZ         6.9100  -12.4970   38.1750 C.ar  164  TYR164      0.1957
    110  OH         8.0240  -13.0730   37.6790 O.3   164  TYR164     -0.2866
    111  N          9.3790  -14.9930   42.4750 N.3   188  LEU188     -0.1231
    112  CA         8.7610  -14.2790   41.3720 C.3   188  LEU188      0.1693
    113  C          9.6700  -13.0960   40.9400 C.2   188  LEU188      0.2592
    114  O          9.8740  -12.9580   39.7490 O.2   188  LEU188     -0.2718
    115  CB         7.3940  -13.7720   41.7390 C.3   188  LEU188      0.0284
    116  CG         6.3770  -14.8010   42.1710 C.3   188  LEU188      0.0019
    117  CD1        5.0750  -14.0330   42.6430 C.3   188  LEU188      0.0001
    118  CD2        6.0270  -15.6460   40.9560 C.3   188  LEU188      0.0001
    119  N         10.1430  -12.3430   41.9150 N.am  189  GLU189     -0.1966
    120  CA        11.0790  -11.2370   41.5880 C.3   189  GLU189      0.1733
    121  C         12.3000  -11.8130   40.8840 C.2   189  GLU189      0.2616
    122  O         12.7990  -11.2140   39.8610 O.2   189  GLU189     -0.2715
    123  CB        11.6630  -10.6840   42.9460 C.3   189  GLU189      0.0429
    124  CG        10.5030   -9.8390   43.5780 C.3   189  GLU189      0.1163
    125  CD        10.8410   -9.3480   45.0010 C.2   189  GLU189      0.3649
    126  OE1       11.9360   -9.5630   45.3760 O.co2 189  GLU189     -0.2457
    127  OE2        9.9660   -8.6560   45.5200 O.co2 189  GLU189     -0.2457
    128  N         12.8800  -12.8660   41.3480 N.am  190  ASN190     -0.1958
    129  CA        14.0700  -13.4570   40.7880 C.3   190  ASN190      0.1819
    130  C         13.8510  -13.8720   39.2860 C.2   190  ASN190      0.2622
    131  O         14.7920  -14.0330   38.4940 O.2   190  ASN190     -0.2715
    132  CB        14.5460  -14.7090   41.5560 C.3   190  ASN190      0.1195
    133  CG        15.1870  -14.2640   42.9780 C.2   190  ASN190      0.2630
    134  OD1       15.5400  -13.1420   43.0740 O.2   190  ASN190     -0.2716
    135  ND2       15.5170  -15.3240   43.7220 N.am  190  ASN190     -0.0877
    136  N         12.6230  -14.4020   39.0860 N.am  191  SER191     -0.1936
    137  CA        12.3580  -15.0780   37.7830 C.3   191  SER191      0.2055
    138  C         11.5480  -14.3940   36.6880 C.2   191  SER191      0.2643
    139  O         11.1520  -15.1390   35.7130 O.2   191  SER191     -0.2714
    140  CB        11.5050  -16.3610   38.1190 C.3   191  SER191      0.2130
    141  OG        12.2190  -17.0980   39.1180 O.3   191  SER191     -0.2179
    142  N         11.3600  -13.1190   36.7600 N.am  192  TRP192     -0.1959
    143  CA        10.5570  -12.3590   35.7930 C.3   192  TRP192      0.1771
    144  C         11.1490  -12.5430   34.3940 C.2   192  TRP192      0.2620
    145  O         10.3840  -12.7660   33.4350 O.2   192  TRP192     -0.2715
    146  CB        10.4570  -10.8990   36.2320 C.3   192  TRP192      0.0590
    147  CG         9.5400  -10.1540   35.2730 C.ar  192  TRP192      0.0006
    148  CD1        8.2420  -10.4460   34.9930 C.ar  192  TRP192      0.0946
    149  CD2        9.8660   -8.9870   34.5700 C.ar  192  TRP192      0.0152
    150  NE1        7.6820   -9.5010   34.1460 N.ar  192  TRP192     -0.2442
    151  CE2        8.7070   -8.6330   33.8500 C.ar  192  TRP192      0.0810
    152  CE3       11.0180   -8.2110   34.4260 C.ar  192  TRP192      0.0012
    153  CZ2        8.6150   -7.4740   33.0350 C.ar  192  TRP192      0.0191
    154  CZ3       10.9260   -7.0740   33.6270 C.ar  192  TRP192      0.0001
    155  CH2        9.7050   -6.6820   33.0270 C.ar  192  TRP192      0.0015
    156  N         12.4540  -12.2970   34.2980 N.am  193  SER193     -0.1936
    157  CA        13.1290  -12.3890   33.0430 C.3   193  SER193      0.2055
    158  C         12.9370  -13.7030   32.3720 C.2   193  SER193      0.2642
    159  O         12.7340  -13.7800   31.1090 O.2   193  SER193     -0.2714
    160  CB        14.7460  -12.3820   33.2990 C.3   193  SER193      0.2130
    161  OG        14.8420  -10.9610   33.1470 O.3   193  SER193     -0.2179
    162  N         13.3250  -14.7630   33.0910 N.am  194  ALA194     -0.1977
    163  CA        13.2750  -16.1840   32.6030 C.3   194  ALA194      0.1597
    164  C         11.8630  -16.5070   32.2200 C.2   194  ALA194      0.2287
    165  O         11.5210  -17.1290   31.1890 O.2   194  ALA194     -0.2864
    166  CB        13.7480  -17.1360   33.6990 C.3   194  ALA194      0.0319
    167  N         10.8140  -14.7860   28.9270 N.3   197  LYS197     -0.1231
    168  CA        11.4520  -15.3850   27.6880 C.3   197  LYS197      0.1693
    169  C         10.6800  -16.6450   27.3280 C.2   197  LYS197      0.2588
    170  O         10.4340  -16.8980   26.1130 O.2   197  LYS197     -0.2718
    171  CB        12.8760  -15.7000   28.0150 C.3   197  LYS197      0.0285
    172  CG        13.6940  -16.2300   26.8240 C.3   197  LYS197      0.0035
    173  CD        14.9880  -16.8140   27.2560 C.3   197  LYS197      0.0206
    174  CE        15.7400  -17.5430   26.1530 C.3   197  LYS197      0.1093
    175  NZ        17.1990  -17.7120   26.5610 N.3   197  LYS197     -0.1314
    176  N         10.4110  -17.5280   28.2790 N.am  198  GLN198     -0.2033
    177  CA         9.7700  -18.8490   28.0950 C.3   198  GLN198      0.1287
    178  C          8.3690  -18.6420   27.5840 C.3   198  GLN198      0.2036
    179  O          8.0270  -19.5250   26.6810 O.3   198  GLN198     -0.2185
    180  CB         9.7860  -19.7480   29.3580 C.3   198  GLN198      0.0340
    181  CG        11.2440  -20.0700   29.7580 C.3   198  GLN198      0.0904
    182  CD        11.8970  -20.7390   28.5910 C.2   198  GLN198      0.2608
    183  OE1       11.4940  -21.6070   27.8720 O.2   198  GLN198     -0.2717
    184  NE2       13.2220  -20.4160   28.4550 N.am  198  GLN198     -0.0878
    185  N         12.7720  -24.3560   28.2870 N.3   211  SER211     -0.1203
    186  CA        13.5210  -24.6870   29.5180 C.3   211  SER211      0.2005
    187  C         12.5460  -24.4100   30.6930 C.2   211  SER211      0.2461
    188  O         11.8550  -23.3810   30.6450 O.2   211  SER211     -0.2732
    189  CB        14.7730  -23.8500   29.7900 C.3   211  SER211      0.2103
    190  OG        15.6320  -24.0030   28.6870 O.3   211  SER211     -0.2182
    191  N         12.3850  -25.3700   31.5880 N.am  212  PRO212     -0.2717
    192  CA        11.4900  -25.0940   32.7310 C.3   212  PRO212      0.1535
    193  C         12.0700  -24.0420   33.6510 C.2   212  PRO212      0.2598
    194  O         13.2830  -23.6500   33.6590 O.2   212  PRO212     -0.2715
    195  CB        11.3400  -26.4230   33.4510 C.3   212  PRO212      0.0310
    196  CG        12.6460  -27.1450   33.1230 C.3   212  PRO212      0.0237
    197  CD        13.0910  -26.6610   31.7320 C.3   212  PRO212      0.0939
    198  N         11.1830  -23.3810   34.4100 N.am  213  VAL213     -0.1978
    199  CA        11.4590  -22.3590   35.4490 C.3   213  VAL213      0.1596
    200  C         11.0290  -22.9580   36.8320 C.2   213  VAL213      0.2287
    201  O          9.8740  -23.4190   36.9600 O.2   213  VAL213     -0.2864
    202  CB        10.6460  -21.1000   35.1690 C.3   213  VAL213      0.0276
    203  CG1       10.9180  -19.9090   36.0320 C.3   213  VAL213      0.0022
    204  CG2       11.1330  -20.4780   33.7380 C.3   213  VAL213      0.0022
    205  N         16.7920   -8.1960   27.2480 N.3   246  MET246     -0.1245
    206  CA        17.5140   -8.9710   28.2390 C.3   246  MET246      0.1570
    207  C         18.9650   -9.1400   27.6320 C.2   246  MET246      0.2261
    208  O         19.9590   -8.6030   28.0870 O.2   246  MET246     -0.2867
    209  CB        17.0450  -10.4390   28.3910 C.3   246  MET246      0.0387
    210  CG        15.6790  -10.5920   27.8080 C.3   246  MET246      0.0595
    211  SD        14.9840  -12.1900   28.3670 S.3   246  MET246     -0.1393
    212  CE        13.2560  -11.5980   28.5750 C.3   246  MET246      0.0692
@<TRIPOS>BOND
     1   170   169    2
     2   174   175    1
     3   174   173    1
     4   179   178    1
     5   172   173    1
     6   172   171    1
     7   205   206    1
     8   169   168    1
     9   169   176   am
    10   178   177    1
    11   207   208    2
    12   207   206    1
    13   168   171    1
    14   168   167    1
    15   210   211    1
    16   210   209    1
    17   183   182    2
    18   177   176    1
    19   177   180    1
    20   206   209    1
    21   185   186    1
    22   211   212    1
    23   184   182   am
    24   182   181    1
    25   190   189    1
    26   180   181    1
    27   186   189    1
    28   186   187    1
    29   188   187    2
    30   187   191   am
    31   159   158    2
    32   165   164    2
    33   191   197    1
    34   191   192    1
    35   197   196    1
    36   164   163    1
    37   158   157    1
    38   158   162   am
    39   163   162    1
    40   163   166    1
    41   192   195    1
    42   192   193    1
    43   155   153   ar
    44   155   154   ar
    45   153   151   ar
    46   157   160    1
    47   157   156    1
    48   196   195    1
    49   161   160    1
    50   145   144    2
    51   154   152   ar
    52   193   194    2
    53   193   198   am
    54   204   202    1
    55   151   150   ar
    56   151   149   ar
    57    12    11    1
    58   150   148   ar
    59    10    11   ar
    60    10     8   ar
    61   156   144   am
    62    35    34    2
    63   144   143    1
    64   198   199    1
    65   152   149   ar
    66    11     9   ar
    67    34    33    1
    68   149   147   ar
    69     8     6   ar
    70     9     7   ar
    71   148   147   ar
    72   202   199    1
    73   202   203    1
    74     6     7   ar
    75     6     5    1
    76     1     2    1
    77   147   146    1
    78   199   200    1
    79     5     2    1
    80    33    36    1
    81    33    32    1
    82   139   138    2
    83     4     3    2
    84   143   146    1
    85   143   142    1
    86    36    37    1
    87    37    38    1
    88     2     3    1
    89     3    13   am
    90    95    96    2
    91    95    94    1
    92    40    38   ar
    93    98    96    1
    94   138   142   am
    95   138   137    1
    96    91    90    2
    97    93    94    1
    98    93    92    2
    99   200   201    2
   100    38    39   ar
   101    96    97    1
   102    89    92    1
   103    89    90    1
   104    89    88    1
   105    90    99   am
   106   110   109    1
   107   137   140    1
   108   137   136    1
   109    13    14    1
   110    15    16    1
   111    15    14    1
   112    24    23    2
   113   140   141    1
   114   109   107   ar
   115   109   108   ar
   116   107   105   ar
   117    14    17    1
   118   131   130    2
   119   108   106   ar
   120   105   104   ar
   121    99   100    1
   122    76    75    2
   123   136   130   am
   124    23    22    1
   125   100   103    1
   126   100   101    1
   127   130   129    1
   128    78    77    1
   129   106   104   ar
   130    77    74    1
   131   104   103    1
   132    74    75    1
   133    74    73    1
   134    25    22    1
   135    25    26    1
   136   114   113    2
   137    21    22    1
   138   122   121    2
   139    75    79   am
   140    17    18    1
   141    17    19    1
   142    18    20    1
   143   101   102    2
   144    49    50    1
   145    49    46    1
   146    28    26   ar
   147    28    30   ar
   148    86    85   ar
   149    41    42    1
   150    26    27   ar
   151    50    51    2
   152    50    52   am
   153   129   128    1
   154   129   132    1
   155    42    43    1
   156    82    81    2
   157   121   128   am
   158   121   120    1
   159   113   112    1
   160   113   119   am
   161   118   116    1
   162    45    43   am
   163    45    46    1
   164    43    44    2
   165    30    31   ar
   166    79    80    1
   167    46    47    1
   168    80    81    1
   169    80    83    1
   170    85    87   ar
   171    85    84    1
   172   112   115    1
   173   112   111    1
   174   132   133    1
   175   120   119    1
   176   120   123    1
   177   115   116    1
   178    27    29   ar
   179   116   117    1
   180    84    83    1
   181    31    29   ar
   182    71    69    1
   183    47    53   am
   184    47    48    2
   185    53    54    1
   186   123   124    1
   187   133   134    2
   188   133   135   am
   189    68    67    2
   190    62    60   ar
   191    62    63   ar
   192    70    72    1
   193    70    69    1
   194    60    58   ar
   195   124   125    1
   196    64    63    1
   197    69    66    1
   198    63    61   ar
   199    66    67    1
   200    66    65    1
   201    58    57    1
   202    58    59   ar
   203    54    57    1
   204    54    55    1
   205    61    59   ar
   206    55    56    1
   207   125   126   ar
   208   125   127   ar
