@<TRIPOS>MOLECULE
tmp/1tcvB00.pdb
 120 114 0 0 0
SMALL
GASTEIGER

@<TRIPOS>ATOM
      1  N          5.0600   37.8540   55.7450 N.3    31  GLY31      -0.1210
      2  CA         5.2610   36.4400   55.9660 C.3    31  GLY31       0.1956
      3  C          5.9500   36.3020   57.3020 C.2    31  GLY31       0.2612
      4  O          5.8420   37.1810   58.1580 O.2    31  GLY31      -0.2717
      5  N          6.6680   35.2020   57.4780 N.am   32  SER32      -0.1952
      6  CA         7.4550   34.9900   58.6820 C.3    32  SER32       0.1924
      7  C          8.3640   36.1890   58.9340 C.2    32  SER32       0.2314
      8  O          8.9590   36.7390   57.9990 O.2    32  SER32      -0.2863
      9  CB         8.2950   33.7200   58.5550 C.3    32  SER32       0.2116
     10  OG         8.8710   33.3890   59.8000 O.3    32  SER32      -0.2180
     11  N         -2.1750   36.2210   54.0530 N.3    79  ARG79      -0.1245
     12  CA        -1.8140   35.9050   52.6870 C.3    79  ARG79       0.1563
     13  C         -2.6520   34.7670   52.1520 C.2    79  ARG79       0.2260
     14  O         -3.3420   34.0670   52.9010 O.2    79  ARG79      -0.2867
     15  CB        -0.3640   35.4620   52.6090 C.3    79  ARG79       0.0307
     16  CG         0.6160   36.3140   53.3430 C.3    79  ARG79       0.0489
     17  CD         1.9910   35.7080   53.3280 C.3    79  ARG79       0.2205
     18  NE         2.5830   35.7170   51.9910 N.pl3  79  ARG79      -0.0865
     19  CZ         3.8760   35.5380   51.7510 C.cat  79  ARG79       0.5346
     20  NH1        4.7290   35.3220   52.7460 N.pl3  79  ARG79       0.1354
     21  NH2        4.3270   35.5730   50.5150 N.pl3  79  ARG79       0.1354
     22  N         -2.1400   31.4670   50.1980 N.3    81  HIS81      -0.1241
     23  CA        -1.1530   30.4740   49.7920 C.3    81  HIS81       0.1621
     24  C         -1.7740   29.4530   48.8560 C.2    81  HIS81       0.2264
     25  O         -2.8880   29.0060   49.0800 O.2    81  HIS81      -0.2867
     26  CB        -0.5990   29.7610   51.0100 C.3    81  HIS81       0.0745
     27  CG         0.2870   30.6190   51.8480 C.ar   81  HIS81       0.0817
     28  ND1       -0.0500   31.0040   53.1250 N.ar   81  HIS81      -0.2268
     29  CD2        1.4880   31.1800   51.5880 C.ar   81  HIS81       0.1154
     30  CE1        0.9140   31.7570   53.6220 C.ar   81  HIS81       0.1986
     31  NE2        1.8570   31.8820   52.7070 N.ar   81  HIS81      -0.2212
     32  N         -0.9980   26.3950   48.4110 N.3    83  TYR83      -0.1241
     33  CA        -1.1910   25.0780   49.0360 C.3    83  TYR83       0.1605
     34  C         -2.5090   24.9910   49.7990 C.2    83  TYR83       0.2264
     35  O         -2.9700   23.8920   50.1110 O.2    83  TYR83      -0.2867
     36  CB        -0.0150   24.6690   49.9440 C.3    83  TYR83       0.0534
     37  CG         0.3300   25.6670   51.0200 C.ar   83  TYR83      -0.0201
     38  CD1       -0.4620   25.8110   52.1490 C.ar   83  TYR83      -0.0009
     39  CD2        1.4640   26.4610   50.9090 C.ar   83  TYR83      -0.0009
     40  CE1       -0.1360   26.7370   53.1410 C.ar   83  TYR83       0.0417
     41  CE2        1.8040   27.3780   51.8870 C.ar   83  TYR83       0.0417
     42  CZ         0.9940   27.5130   52.9990 C.ar   83  TYR83       0.1957
     43  OH         1.3190   28.4240   53.9730 O.3    83  TYR83      -0.2866
     44  N          9.0690   35.8080   53.6960 N.3   110  ASN110     -0.1225
     45  CA         8.5450   34.4650   53.8080 C.3   110  ASN110      0.1785
     46  C          9.4670   33.6270   54.6760 C.2   110  ASN110      0.2597
     47  O         10.5360   34.0850   55.0650 O.2   110  ASN110     -0.2718
     48  CB         8.3200   33.8480   52.4160 C.3   110  ASN110      0.1169
     49  CG         9.6010   33.6580   51.6240 C.2   110  ASN110      0.2627
     50  OD1        9.6830   34.0460   50.4400 O.2   110  ASN110     -0.2716
     51  ND2       10.5720   33.0020   52.2250 N.am  110  ASN110     -0.0877
     52  N          9.0260   32.4220   54.9980 N.am  111  ALA111     -0.1966
     53  CA         9.8560   31.4510   55.6900 C.3   111  ALA111      0.1728
     54  C         10.2660   30.3970   54.6810 C.2   111  ALA111      0.2616
     55  O          9.4670   29.9890   53.8450 O.2   111  ALA111     -0.2715
     56  CB         9.1000   30.8230   56.8460 C.3   111  ALA111      0.0334
     57  N         11.5130   29.9560   54.7620 N.am  112  ALA112     -0.1977
     58  CA        12.0770   29.0420   53.7720 C.3   112  ALA112      0.1597
     59  C         13.0760   28.0960   54.4160 C.2   112  ALA112      0.2287
     60  O         13.6490   28.3860   55.4730 O.2   112  ALA112     -0.2864
     61  CB        12.7540   29.8200   52.6610 C.3   112  ALA112      0.0319
     62  N          1.8520   21.2500   50.4640 N.3   193  PRO193     -0.2116
     63  CA         2.3980   21.7450   51.7320 C.3   193  PRO193      0.1372
     64  C          3.3720   20.8090   52.4570 C.2   193  PRO193      0.2244
     65  O          3.7700   21.1320   53.5680 O.2   193  PRO193     -0.2868
     66  CB         1.1330   21.8960   52.5740 C.3   193  PRO193      0.0268
     67  CG         0.3010   20.7180   52.1430 C.3   193  PRO193      0.0207
     68  CD         0.6290   20.4630   50.6790 C.3   193  PRO193      0.0892
     69  N          6.8530   19.3750   53.5590 N.3   195  TYR195     -0.1241
     70  CA         8.2630   19.7180   53.5370 C.3   195  TYR195      0.1605
     71  C          8.9660   18.8130   52.5270 C.2   195  TYR195      0.2264
     72  O          8.4690   17.7560   52.1470 O.2   195  TYR195     -0.2867
     73  CB         8.8930   19.6040   54.9240 C.3   195  TYR195      0.0534
     74  CG         8.5750   20.7780   55.8270 C.ar  195  TYR195     -0.0201
     75  CD1        7.6970   20.6440   56.8950 C.ar  195  TYR195     -0.0009
     76  CD2        9.1670   22.0200   55.6160 C.ar  195  TYR195     -0.0009
     77  CE1        7.4130   21.7210   57.7400 C.ar  195  TYR195      0.0417
     78  CE2        8.8890   23.0990   56.4450 C.ar  195  TYR195      0.0417
     79  CZ         8.0130   22.9390   57.5080 C.ar  195  TYR195      0.1957
     80  OH         7.7330   24.0170   58.3150 O.3   195  TYR195     -0.2866
     81  N         10.8390   27.3590   49.5280 N.3   213  GLY213     -0.1210
     82  CA         9.6270   27.6630   50.2670 C.3   213  GLY213      0.1956
     83  C          8.3930   27.4450   49.4210 C.2   213  GLY213      0.2612
     84  O          8.4790   26.9920   48.2830 O.2   213  GLY213     -0.2717
     85  N          7.2380   27.7870   49.9810 N.am  214  MET214     -0.1965
     86  CA         5.9610   27.4150   49.3840 C.3   214  MET214      0.1736
     87  C          5.1000   28.5990   48.9620 C.2   214  MET214      0.2617
     88  O          3.8860   28.4700   48.7820 O.2   214  MET214     -0.2715
     89  CB         5.1890   26.5440   50.3760 C.3   214  MET214      0.0427
     90  CG         5.9420   25.3220   50.8640 C.3   214  MET214      0.0599
     91  SD         5.0280   24.4750   52.1400 S.3   214  MET214     -0.1393
     92  CE         6.2180   23.2510   52.6570 C.3   214  MET214      0.0692
     93  N          5.7220   29.7550   48.8020 N.am  215  SER215     -0.1950
     94  CA         4.9830   30.9790   48.5520 C.3   215  SER215      0.1924
     95  C          5.7600   31.9680   47.6960 C.2   215  SER215      0.2314
     96  O          6.7630   31.6200   47.0710 O.2   215  SER215     -0.2863
     97  CB         4.6200   31.6090   49.8980 C.3   215  SER215      0.2116
     98  OG         5.7430   32.2080   50.5180 O.3   215  SER215     -0.2180
     99  N         14.0410   29.3230   58.2960 N.3   237  THR237     -0.1203
    100  CA        13.3600   28.7530   59.4740 C.3   237  THR237      0.1994
    101  C         13.6190   27.2600   59.6820 C.2   237  THR237      0.2617
    102  O         13.1970   26.6920   60.6910 O.2   237  THR237     -0.2717
    103  CB        11.8430   28.9610   59.3850 C.3   237  THR237      0.1784
    104  OG1       11.3510   28.4510   58.1460 O.3   237  THR237     -0.2211
    105  CG2       11.4800   30.4440   59.3630 C.3   237  THR237      0.0376
    106  N         14.2580   26.6200   58.7100 N.am  238  ASN238     -0.1974
    107  CA        14.6800   25.2270   58.8440 C.3   238  ASN238      0.1688
    108  C         15.9090   24.9660   57.9790 C.2   238  ASN238      0.2292
    109  O         16.0730   25.5890   56.9330 O.2   238  ASN238     -0.2864
    110  CB        13.5250   24.2430   58.5310 C.3   238  ASN238      0.1181
    111  CG        12.9190   24.4160   57.1250 C.2   238  ASN238      0.2629
    112  OD1       12.2050   25.3890   56.8440 O.2   238  ASN238     -0.2716
    113  ND2       13.1690   23.4440   56.2510 N.am  238  ASN238     -0.0877
    114  N         10.1250   26.0850   63.3350 N.3   249  VAL249     -0.1245
    115  CA         9.8590   27.0900   62.3090 C.3   249  VAL249      0.1561
    116  C          9.1600   28.3210   62.8860 C.2   249  VAL249      0.2260
    117  O          9.5390   29.4520   62.5820 O.2   249  VAL249     -0.2867
    118  CB         8.9830   26.4950   61.1700 C.3   249  VAL249      0.0252
    119  CG1        8.3850   27.5940   60.2850 C.3   249  VAL249      0.0019
    120  CG2        9.7930   25.4960   60.3370 C.3   249  VAL249      0.0019
@<TRIPOS>BOND
     1    96    95    2
     2    95    94    1
     3    84    83    2
     4    32    33    1
     5    94    93    1
     6    94    97    1
     7    88    87    2
     8    93    87   am
     9    24    25    2
    10    24    23    1
    11    87    86    1
    12    33    34    1
    13    33    36    1
    14    86    85    1
    15    86    89    1
    16    83    85   am
    17    83    82    1
    18    81    82    1
    19    23    22    1
    20    23    26    1
    21    34    35    2
    22    97    98    1
    23    36    37    1
    24    89    90    1
    25    50    49    2
    26    62    68    1
    27    62    63    1
    28    21    19    1
    29    68    67    1
    30    90    91    1
    31    39    37   ar
    32    39    41   ar
    33    26    27    1
    34    37    38   ar
    35    29    27   ar
    36    29    31   ar
    37    49    51   am
    38    49    48    1
    39    63    64    1
    40    63    66    1
    41    19    18    2
    42    19    20    1
    43    27    28   ar
    44    41    42   ar
    45    18    17    1
    46    91    92    1
    47    67    66    1
    48    72    71    2
    49    38    40   ar
    50    13    12    1
    51    13    14    2
    52    48    45    1
    53    64    65    2
    54    71    70    1
    55    15    12    1
    56    15    16    1
    57    61    58    1
    58    12    11    1
    59    31    30   ar
    60    42    40   ar
    61    42    43    1
    62    28    30   ar
    63    17    16    1
    64    70    69    1
    65    70    73    1
    66    44    45    1
    67    58    59    1
    68    58    57    1
    69    45    46    1
    70    55    54    2
    71    59    60    2
    72    46    52   am
    73    46    47    2
    74    54    57   am
    75    54    53    1
    76    73    74    1
    77    52    53    1
    78    76    74   ar
    79    76    78   ar
    80    53    56    1
    81     1     2    1
    82    74    75   ar
    83     2     3    1
    84   113   111   am
    85    78    79   ar
    86   112   111    2
    87    75    77   ar
    88   109   108    2
    89   111   110    1
    90     3     5   am
    91     3     4    2
    92     5     6    1
    93    79    77   ar
    94    79    80    1
    95   108   107    1
    96     8     7    2
    97   104   103    1
    98    99   100    1
    99   110   107    1
   100     9     6    1
   101     9    10    1
   102     6     7    1
   103   106   107    1
   104   106   101   am
   105   105   103    1
   106   103   100    1
   107   100   101    1
   108   101   102    2
   109   119   118    1
   110   120   118    1
   111   118   115    1
   112   115   116    1
   113   115   114    1
   114   117   116    2
