@<TRIPOS>MOLECULE
tmp/1tcwB01.pdb
 118 111 0 0 0
SMALL
GASTEIGER

@<TRIPOS>ATOM
      1  N         67.3570   10.4150   15.0320 N.3    25  ASP25      -0.1239
      2  CA        66.9620    9.8820   16.3080 C.3    25  ASP25       0.1674
      3  C         67.3480    8.4540   16.6730 C.2    25  ASP25       0.2266
      4  O         66.6730    7.5460   16.1790 O.2    25  ASP25      -0.2867
      5  CB        65.4830   10.1160   16.2940 C.3    25  ASP25       0.1410
      6  CG        64.7910   10.1400   17.6060 C.2    25  ASP25       0.3668
      7  OD1       65.3240    9.6710   18.6310 O.co2  25  ASP25      -0.2456
      8  OD2       63.6720   10.6590   17.5790 O.co2  25  ASP25      -0.2456
      9  N         66.6950    7.0910   19.3760 N.3    27  GLY27      -0.1210
     10  CA        65.6820    6.5870   20.2830 C.3    27  GLY27       0.1956
     11  C         64.3510    6.2710   19.6610 C.2    27  GLY27       0.2612
     12  O         63.4080    6.0270   20.4270 O.2    27  GLY27      -0.2717
     13  N         64.2500    6.3140   18.3390 N.am   28  ALA28      -0.1965
     14  CA        63.0130    6.0280   17.6300 C.3    28  ALA28       0.1728
     15  C         63.1550    4.7840   16.7680 C.2    28  ALA28       0.2616
     16  O         64.2080    4.6030   16.1640 O.2    28  ALA28      -0.2715
     17  CB        62.6800    7.2000   16.7620 C.3    28  ALA28       0.0334
     18  N         62.1760    3.8970   16.7840 N.am   29  ASP29      -0.1957
     19  CA        62.1160    2.6630   16.0170 C.3    29  ASP29       0.1840
     20  C         61.7950    2.9050   14.5270 C.2    29  ASP29       0.2622
     21  O         62.2760    2.1860   13.6160 O.2    29  ASP29      -0.2715
     22  CB        61.0040    1.7300   16.5420 C.3    29  ASP29       0.1450
     23  CG        61.1090    1.0870   17.9230 C.2    29  ASP29       0.3671
     24  OD1       62.0960    1.3170   18.6420 O.co2  29  ASP29      -0.2456
     25  OD2       60.1880    0.3280   18.2980 O.co2  29  ASP29      -0.2456
     26  N         60.9860    3.9470   14.2970 N.am   30  ASP30      -0.1971
     27  CA        60.5560    4.2700   12.9530 C.3    30  ASP30       0.1709
     28  C         60.9670    5.6460   12.4960 C.2    30  ASP30       0.2293
     29  O         61.5490    6.3610   13.3000 O.2    30  ASP30      -0.2864
     30  CB        59.0440    4.1350   12.9540 C.3    30  ASP30       0.1436
     31  CG        58.5220    2.7860   13.4040 C.2    30  ASP30       0.3671
     32  OD1       58.4600    1.8520   12.5860 O.co2  30  ASP30      -0.2456
     33  OD2       58.1900    2.6330   14.5870 O.co2  30  ASP30      -0.2456
     34  N         59.1370    8.9070   11.1560 N.3    32  ILE32      -0.1245
     35  CA        57.8340    9.5010   11.0270 C.3    32  ILE32       0.1561
     36  C         58.0340   10.9110   10.4940 C.2    32  ILE32       0.2260
     37  O         58.7520   11.6580   11.1790 O.2    32  ILE32      -0.2867
     38  CB        57.1020    9.6720   12.4170 C.3    32  ILE32       0.0252
     39  CG1       57.4200    8.5440   13.4020 C.3    32  ILE32       0.0019
     40  CG2       55.6310    9.8210   12.1570 C.3    32  ILE32       0.0019
     41  CD1       56.6690    7.2840   13.2520 C.3    32  ILE32       0.0001
     42  N         49.6990    2.7830   14.6170 N.3    46  ILE46      -0.1231
     43  CA        49.6220    3.6210   15.8050 C.3    46  ILE46       0.1692
     44  C         50.9570    3.3600   16.5810 C.2    46  ILE46       0.2592
     45  O         51.3830    2.2090   16.7850 O.2    46  ILE46      -0.2718
     46  CB        48.3080    3.3070   16.6660 C.3    46  ILE46       0.0266
     47  CG1       48.3680    4.2360   17.8850 C.3    46  ILE46       0.0019
     48  CG2       48.1810    1.8930   17.1620 C.3    46  ILE46       0.0020
     49  CD1       47.0150    4.7640   18.2780 C.3    46  ILE46       0.0001
     50  N         51.6980    4.4620   16.8850 N.am   47  VAL47      -0.1966
     51  CA        52.9700    4.3710   17.6090 C.3    47  VAL47       0.1727
     52  C         52.9310    5.3060   18.8310 C.2    47  VAL47       0.2617
     53  O         52.0610    6.1900   18.9250 O.2    47  VAL47      -0.2715
     54  CB        54.1610    4.6910   16.6290 C.3    47  VAL47       0.0290
     55  CG1       54.2180    3.6260   15.4860 C.3    47  VAL47       0.0023
     56  CG2       54.0020    6.0540   16.0800 C.3    47  VAL47       0.0023
     57  N         53.8040    5.0140   19.8010 N.am   48  GLY48      -0.1940
     58  CA        53.7480    5.6980   21.0830 C.3    48  GLY48       0.2014
     59  C         54.9860    6.4750   21.3830 C.2    48  GLY48       0.2639
     60  O         55.9510    6.2940   20.6440 O.2    48  GLY48      -0.2714
     61  N         54.9610    7.3130   22.4000 N.am   49  GLY49      -0.1939
     62  CA        56.1370    8.0280   22.7900 C.3    49  GLY49       0.2014
     63  C         55.9070    8.8130   24.0610 C.2    49  GLY49       0.2638
     64  O         55.0310    8.3710   24.7970 O.2    49  GLY49      -0.2714
     65  N         56.6890    9.8650   24.3790 N.am   50  ILE50      -0.1977
     66  CA        56.3830   10.7820   25.4840 C.3    50  ILE50       0.1596
     67  C         55.1530   11.5730   24.9990 C.2    50  ILE50       0.2287
     68  O         55.1570   12.1330   23.8840 O.2    50  ILE50      -0.2864
     69  CB        57.5960   11.7560   25.7810 C.3    50  ILE50       0.0276
     70  CG1       58.5590   10.8720   26.6210 C.3    50  ILE50       0.0022
     71  CG2       57.2310   13.0950   26.4620 C.3    50  ILE50       0.0022
     72  CD1       59.9540   11.4070   26.9040 C.3    50  ILE50       0.0001
     73  N         50.0860    8.1130   22.2760 N.3    53  PHE53      -0.1227
     74  CA        50.0930    7.4510   20.9870 C.3    53  PHE53       0.1736
     75  C         49.6780    8.3480   19.8290 C.2    53  PHE53       0.2595
     76  O         48.9480    9.3180   20.0470 O.2    53  PHE53      -0.2718
     77  CB        49.1950    6.2170   21.0990 C.3    53  PHE53       0.0547
     78  CG        49.6890    5.2450   22.1380 C.ar   53  PHE53      -0.0202
     79  CD1       49.2310    5.3170   23.4640 C.ar   53  PHE53      -0.0042
     80  CD2       50.5410    4.2130   21.7690 C.ar   53  PHE53      -0.0042
     81  CE1       49.6060    4.3660   24.3960 C.ar   53  PHE53      -0.0003
     82  CE2       50.9250    3.2480   22.6960 C.ar   53  PHE53      -0.0003
     83  CZ        50.4550    3.3290   24.0050 C.ar   53  PHE53      -0.0000
     84  N         50.0610    7.9870   18.6150 N.am   54  ILE54      -0.1980
     85  CA        49.7520    8.7480   17.4190 C.3    54  ILE54       0.1595
     86  C         49.4980    7.7530   16.2750 C.2    54  ILE54       0.2287
     87  O         50.0770    6.6630   16.1940 O.2    54  ILE54      -0.2864
     88  CB        51.0070    9.7060   17.3270 C.3    54  ILE54       0.0276
     89  CG1       50.4810   11.1150   17.0880 C.3    54  ILE54       0.0022
     90  CG2       51.9960    9.3610   16.2240 C.3    54  ILE54       0.0022
     91  CD1       50.7460   12.0500   18.2630 C.3    54  ILE54       0.0001
     92  N         56.7920    6.6670    7.6750 N.3    76  MET76      -0.1245
     93  CA        55.4290    6.8160    8.1660 C.3    76  MET76       0.1570
     94  C         55.1270    8.3100    8.1350 C.2    76  MET76       0.2261
     95  O         56.0170    9.1130    8.4650 O.2    76  MET76      -0.2867
     96  CB        55.2860    6.4040    9.5940 C.3    76  MET76       0.0387
     97  CG        55.3580    4.9500    9.9220 C.3    76  MET76       0.0595
     98  SD        55.3140    4.7650   11.7170 S.3    76  MET76      -0.1393
     99  CE        55.2230    2.9610   11.8330 C.3    76  MET76       0.0692
    100  N         61.2920   12.9460   12.1000 N.3    84  ILE84      -0.1301
    101  CA        62.2730   12.0660   12.6290 C.3    84  ILE84       0.1246
    102  C         62.7520   10.9160   11.8200 C.3    84  ILE84       0.2009
    103  O         61.8790   10.3320   11.2110 O.3    84  ILE84      -0.2188
    104  CB        61.5720   11.6950   13.9940 C.3    84  ILE84       0.0202
    105  CG1       62.2680   12.4930   15.0830 C.3    84  ILE84       0.0015
    106  CG2       61.5460   10.2140   14.2940 C.3    84  ILE84       0.0016
    107  CD1       61.3680   12.4360   16.2860 C.3    84  ILE84       0.0000
    108  N         65.8570    4.4000   13.8850 N.3    87  ARG87      -0.1245
    109  CA        66.8560    3.3520   13.6390 C.3    87  ARG87       0.1563
    110  C         66.5980    2.5970   12.3560 C.2    87  ARG87       0.2260
    111  O         67.5880    2.1910   11.7560 O.2    87  ARG87      -0.2867
    112  CB        66.9330    2.3480   14.8000 C.3    87  ARG87       0.0307
    113  CG        67.5240    2.8830   16.1150 C.3    87  ARG87       0.0489
    114  CD        67.5530    1.8330   17.1640 C.3    87  ARG87       0.2205
    115  NE        66.2210    1.3090   17.4310 N.pl3  87  ARG87      -0.0865
    116  CZ        65.7740    0.0990   17.1280 C.cat  87  ARG87       0.5346
    117  NH1       66.4970   -0.7760   16.4380 N.pl3  87  ARG87       0.1354
    118  NH2       64.5430   -0.2200   17.4670 N.pl3  87  ARG87       0.1354
@<TRIPOS>BOND
     1    92    93    1
     2    94    93    1
     3    94    95    2
     4    93    96    1
     5    96    97    1
     6    97    98    1
     7    36    35    1
     8    36    37    2
     9    35    34    1
    10    35    38    1
    11   103   102    1
    12    98    99    1
    13   111   110    2
    14   102   101    1
    15   100   101    1
    16    40    38    1
    17   110   109    1
    18    38    39    1
    19    28    27    1
    20    28    29    2
    21    32    31   ar
    22   101   104    1
    23    27    30    1
    24    27    26    1
    25    30    31    1
    26    41    39    1
    27    31    33   ar
    28    21    20    2
    29   109   108    1
    30   109   112    1
    31   104   106    1
    32   104   105    1
    33    26    20   am
    34    20    19    1
    35    42    43    1
    36   112   113    1
    37     1     2    1
    38   105   107    1
    39    55    54    1
    40    43    44    1
    41    43    46    1
    42    19    22    1
    43    19    18    1
    44    56    54    1
    45   113   114    1
    46    16    15    2
    47     4     3    2
    48    87    86    2
    49    90    88    1
    50    86    85    1
    51     5     2    1
    52     5     6    1
    53     2     3    1
    54   117   116    1
    55    22    23    1
    56    44    45    2
    57    44    50   am
    58    54    51    1
    59    46    48    1
    60    46    47    1
    61    17    14    1
    62    15    18   am
    63    15    14    1
    64    50    51    1
    65    89    88    1
    66    89    91    1
    67   116   115    2
    68   116   118    1
    69   114   115    1
    70    88    85    1
    71    85    84    1
    72     8     6   ar
    73     6     7   ar
    74    51    52    1
    75    14    13    1
    76    47    49    1
    77    23    25   ar
    78    23    24   ar
    79    13    11   am
    80    84    75   am
    81    52    53    2
    82    52    57   am
    83     9    10    1
    84    11    10    1
    85    11    12    2
    86    57    58    1
    87    75    76    2
    88    75    74    1
    89    60    59    2
    90    74    77    1
    91    74    73    1
    92    58    59    1
    93    77    78    1
    94    59    61   am
    95    80    78   ar
    96    80    82   ar
    97    78    79   ar
    98    61    62    1
    99    82    83   ar
   100    62    63    1
   101    79    81   ar
   102    68    67    2
   103    83    81   ar
   104    63    65   am
   105    63    64    2
   106    65    66    1
   107    67    66    1
   108    66    69    1
   109    69    71    1
   110    69    70    1
   111    70    72    1
