@<TRIPOS>MOLECULE
tmp/1td2B00.pdb
 107 100 0 0 0
SMALL
GASTEIGER

@<TRIPOS>ATOM
      1  N          0.3260   -3.9220   13.3270 N.3    10  SER10      -0.1217
      2  CA         1.6620   -4.2980   12.9100 C.3    10  SER10       0.1889
      3  C          2.8090   -3.4250   13.4020 C.2    10  SER10       0.2288
      4  O          2.6220   -2.2850   13.8360 O.2    10  SER10      -0.2866
      5  CB         1.7170   -4.3260   11.3750 C.3    10  SER10       0.2089
      6  OG         1.2170   -3.1080   10.8430 O.3    10  SER10      -0.2183
      7  N          6.9980   -2.8730   11.9750 N.3    12  VAL12      -0.1245
      8  CA         8.0890   -3.2210   11.0660 C.3    12  VAL12       0.1561
      9  C          9.3590   -2.6750   11.7010 C.2    12  VAL12       0.2260
     10  O          9.3580   -1.5510   12.2270 O.2    12  VAL12      -0.2867
     11  CB         7.9210   -2.5890    9.6740 C.3    12  VAL12       0.0252
     12  CG1        6.9210   -3.4180    8.8720 C.3    12  VAL12       0.0019
     13  CG2        7.4490   -1.1230    9.8050 C.3    12  VAL12       0.0019
     14  N          4.9340    1.6100    9.0780 N.3    17  ALA17      -0.1231
     15  CA         3.6410    1.0350    8.6910 C.3    17  ALA17       0.1694
     16  C          2.9800    0.6000    9.9950 C.2    17  ALA17       0.2592
     17  O          3.6550    0.1460   10.9240 O.2    17  ALA17      -0.2718
     18  CB         3.8260   -0.1660    7.7940 C.3    17  ALA17       0.0304
     19  N          1.6650    0.7330   10.0780 N.am   18  GLY18      -0.1957
     20  CA         0.9990    0.3600   11.3110 C.3    18  GLY18       0.1869
     21  C          1.5330    1.1590   12.4760 C.2    18  GLY18       0.2309
     22  O          1.6680    2.3800   12.3720 O.2    18  GLY18      -0.2863
     23  N          7.6780   -7.6380   11.5670 N.3    41  PHE41      -0.1241
     24  CA         8.2330   -7.8780   10.2380 C.3    41  PHE41       0.1605
     25  C          9.4990   -7.0550    9.9980 C.2    41  PHE41       0.2264
     26  O          9.6840   -5.9880   10.5820 O.2    41  PHE41      -0.2867
     27  CB         7.2000   -7.5190    9.1720 C.3    41  PHE41       0.0534
     28  CG         5.9910   -8.4270    9.1530 C.ar   41  PHE41      -0.0203
     29  CD1        4.8740   -8.0930    8.3800 C.ar   41  PHE41      -0.0042
     30  CD2        5.9720   -9.6150    9.8830 C.ar   41  PHE41      -0.0042
     31  CE1        3.7570   -8.9310    8.3310 C.ar   41  PHE41      -0.0003
     32  CE2        4.8510  -10.4670    9.8420 C.ar   41  PHE41      -0.0003
     33  CZ         3.7500  -10.1220    9.0640 C.ar   41  PHE41      -0.0000
     34  N          7.7870   -3.4640    5.5640 N.3    44  HIS44      -0.1226
     35  CA         6.3930   -3.6580    5.1780 C.3    44  HIS44       0.1752
     36  C          6.2290   -4.5120    3.8940 C.2    44  HIS44       0.2597
     37  O          7.1970   -4.7300    3.1470 O.2    44  HIS44      -0.2718
     38  CB         5.6630   -2.3070    5.0620 C.3    44  HIS44       0.0759
     39  CG         6.0710   -1.4770    3.8850 C.ar   44  HIS44       0.0818
     40  ND1        6.5710   -0.1980    4.0160 N.ar   44  HIS44      -0.2268
     41  CD2        6.0190   -1.7280    2.5530 C.ar   44  HIS44       0.1154
     42  CE1        6.8140    0.3030    2.8150 C.ar   44  HIS44       0.1986
     43  NE2        6.4870   -0.6060    1.9100 N.ar   44  HIS44      -0.2212
     44  N          5.0070   -4.9970    3.6550 N.am   45  THR45      -0.1939
     45  CA         4.7080   -5.8650    2.5000 C.3    45  THR45       0.2028
     46  C          4.7630   -5.2840    1.0840 C.2    45  THR45       0.2642
     47  O          4.8320   -6.0440    0.1290 O.2    45  THR45      -0.2714
     48  CB         3.3230   -6.5400    2.6150 C.3    45  THR45       0.1808
     49  OG1        2.2880   -5.5470    2.5090 O.3    45  THR45      -0.2208
     50  CG2        3.2070   -7.3010    3.9230 C.3    45  THR45       0.0379
     51  N          4.7410   -3.9620    0.9350 N.am   46  GLN46      -0.1976
     52  CA         4.7870   -3.3910   -0.4040 C.3    46  GLN46       0.1601
     53  C          6.1510   -3.6490   -1.0640 C.2    46  GLN46       0.2287
     54  O          6.2930   -3.4860   -2.2720 O.2    46  GLN46      -0.2864
     55  CB         4.4750   -1.8820   -0.3740 C.3    46  GLN46       0.0394
     56  CG         4.0470   -1.3120   -1.7350 C.3    46  GLN46       0.0908
     57  CD         3.8060    0.2000   -1.7300 C.2    46  GLN46       0.2608
     58  OE1        4.7420    0.9980   -1.6960 O.2    46  GLN46      -0.2717
     59  NE2        2.5390    0.5910   -1.7620 N.am   46  GLN46      -0.0878
     60  N         -3.8250   -3.1620   11.0450 N.3    83  TYR83      -0.1241
     61  CA        -3.3560   -4.3460   10.3360 C.3    83  TYR83       0.1605
     62  C         -3.2220   -5.5320   11.2780 C.2    83  TYR83       0.2264
     63  O         -2.5200   -5.4500   12.3040 O.2    83  TYR83      -0.2867
     64  CB        -2.0000   -4.0760    9.6940 C.3    83  TYR83       0.0534
     65  CG        -1.4390   -5.2060    8.8560 C.ar   83  TYR83      -0.0201
     66  CD1       -1.5300   -5.1680    7.4640 C.ar   83  TYR83      -0.0009
     67  CD2       -0.7630   -6.2820    9.4460 C.ar   83  TYR83      -0.0009
     68  CE1       -0.9580   -6.1590    6.6720 C.ar   83  TYR83       0.0417
     69  CE2       -0.1840   -7.2850    8.6610 C.ar   83  TYR83       0.0417
     70  CZ        -0.2880   -7.2130    7.2690 C.ar   83  TYR83       0.1957
     71  OH         0.2640   -8.1940    6.4700 O.3    83  TYR83      -0.2866
     72  N         -8.1060   -2.5230    8.0200 N.3   114  VAL114     -0.1245
     73  CA        -7.0880   -2.6860    7.0060 C.3   114  VAL114      0.1561
     74  C         -7.2870   -3.9640    6.2360 C.2   114  VAL114      0.2260
     75  O         -7.0100   -5.0360    6.7360 O.2   114  VAL114     -0.2867
     76  CB        -5.6710   -2.7080    7.6020 C.3   114  VAL114      0.0252
     77  CG1       -4.6660   -2.8060    6.4790 C.3   114  VAL114      0.0019
     78  CG2       -5.4230   -1.4730    8.4180 C.3   114  VAL114      0.0019
     79  N         -0.2770   -2.7500   -3.1960 N.3   121  GLY121     -0.1210
     80  CA         0.8570   -3.3480   -2.5090 C.3   121  GLY121      0.1956
     81  C          0.6700   -3.8190   -1.0740 C.2   121  GLY121      0.2612
     82  O          1.6360   -4.2820   -0.4580 O.2   121  GLY121     -0.2717
     83  N         -0.5380   -3.7070   -0.5220 N.am  122  CYS122     -0.1970
     84  CA        -0.7370   -4.1460    0.8520 C.3   122  CYS122      0.1712
     85  C         -1.2130   -5.5840    0.9290 C.2   122  CYS122      0.2296
     86  O         -2.3030   -5.9170    0.4560 O.2   122  CYS122     -0.2864
     87  CB        -1.7330   -3.2530    1.5720 C.3   122  CYS122      0.0983
     88  SG        -1.8930   -3.7110    3.3160 S.3   122  CYS122     -0.0798
     89  N          3.7440    3.5440    2.1120 N.3   220  VAL220     -0.1231
     90  CA         2.8730    2.8300    3.0200 C.3   220  VAL220      0.1692
     91  C          2.6880    3.6020    4.3450 C.2   220  VAL220      0.2592
     92  O          3.5830    4.3280    4.7800 O.2   220  VAL220     -0.2718
     93  CB         3.4750    1.4240    3.3030 C.3   220  VAL220      0.0266
     94  CG1        2.7680    0.7590    4.4830 C.3   220  VAL220      0.0020
     95  CG2        3.3860    0.5460    2.0180 C.3   220  VAL220      0.0020
     96  N          1.5100    3.4690    4.9570 N.am  221  GLY221     -0.1957
     97  CA         1.2490    4.0980    6.2420 C.3   221  GLY221      0.1869
     98  C          0.4690    5.3930    6.3610 C.2   221  GLY221      0.2309
     99  O          0.1380    5.8070    7.4770 O.2   221  GLY221     -0.2863
    100  N         -2.5050    4.7190    8.3670 N.3   224  ASP224     -0.1239
    101  CA        -2.3080    4.3760    9.7800 C.3   224  ASP224      0.1674
    102  C         -2.0500    5.6560   10.5890 C.2   224  ASP224      0.2266
    103  O         -2.5520    5.8030   11.7130 O.2   224  ASP224     -0.2867
    104  CB        -1.1440    3.4150    9.9630 C.3   224  ASP224      0.1410
    105  CG        -1.3490    2.1210    9.2270 C.2   224  ASP224      0.3668
    106  OD1       -2.4660    1.5600    9.3230 O.co2 224  ASP224     -0.2456
    107  OD2       -0.3900    1.6650    8.5700 O.co2 224  ASP224     -0.2456
@<TRIPOS>BOND
     1    79    80    1
     2    80    81    1
     3    54    53    2
     4    59    57   am
     5    56    57    1
     6    56    55    1
     7    57    58    2
     8    81    83   am
     9    81    82    2
    10    53    52    1
    11    83    84    1
    12    52    55    1
    13    52    51    1
    14    47    46    2
    15    86    85    2
    16    84    85    1
    17    84    87    1
    18    51    46   am
    19    46    45    1
    20    87    88    1
    21    43    41   ar
    22    43    42   ar
    23    95    93    1
    24    89    90    1
    25    45    48    1
    26    45    44    1
    27    49    48    1
    28    41    39   ar
    29    48    50    1
    30    42    40   ar
    31    90    93    1
    32    90    91    1
    33    37    36    2
    34    93    94    1
    35    44    36   am
    36    39    40   ar
    37    39    38    1
    38    36    35    1
    39    91    92    2
    40    91    96   am
    41    96    97    1
    42    38    35    1
    43    35    34    1
    44    74    75    2
    45    74    73    1
    46    97    98    1
    47    98    99    2
    48    71    70    1
    49    77    76    1
    50    68    70   ar
    51    68    66   ar
    52    73    76    1
    53    73    72    1
    54    70    69   ar
    55    66    65   ar
    56    76    78    1
    57    18    15    1
    58    31    29   ar
    59    31    33   ar
    60   100   101    1
    61    29    28   ar
    62   107   105   ar
    63    69    67   ar
    64    15    14    1
    65    15    16    1
    66    65    67   ar
    67    65    64    1
    68    12    11    1
    69    33    32   ar
    70    28    27    1
    71    28    30   ar
    72    27    24    1
    73   105   106   ar
    74   105   104    1
    75    11    13    1
    76    11     8    1
    77    64    61    1
    78   101   104    1
    79   101   102    1
    80    32    30   ar
    81    16    19   am
    82    16    17    2
    83    25    24    1
    84    25    26    2
    85    19    20    1
    86    24    23    1
    87    61    60    1
    88    61    62    1
    89   102   103    2
    90     6     5    1
    91     8     9    1
    92     8     7    1
    93    62    63    2
    94    20    21    1
    95     5     2    1
    96     9    10    2
    97    22    21    2
    98     2     1    1
    99     2     3    1
   100     3     4    2
