@<TRIPOS>MOLECULE
tmp/1td7A00.pdb
 144 143 0 0 0
SMALL
GASTEIGER

@<TRIPOS>ATOM
      1  N          8.2260   18.6910    8.7100 N.3     2  LEU2       -0.1245
      2  CA         7.8370   17.5590    7.8850 C.3     2  LEU2        0.1561
      3  C          6.3490   17.2190    7.8960 C.2     2  LEU2        0.2260
      4  O          5.7890   16.8920    6.8740 O.2     2  LEU2       -0.2867
      5  CB         8.6420   16.3510    8.3110 C.3     2  LEU2        0.0270
      6  CG         9.4790   15.7470    7.1930 C.3     2  LEU2        0.0019
      7  CD1       10.4000   16.7840    6.4450 C.3     2  LEU2        0.0001
      8  CD2       10.3470   14.6550    7.7650 C.3     2  LEU2        0.0001
      9  N          4.8030   19.8670    6.0240 N.3     5  PHE5       -0.1227
     10  CA         5.1500   19.7490    4.6210 C.3     5  PHE5        0.1736
     11  C          4.3280   18.6560    4.0130 C.2     5  PHE5        0.2595
     12  O          3.7930   18.8080    2.9080 O.2     5  PHE5       -0.2718
     13  CB         6.6330   19.4430    4.4370 C.3     5  PHE5        0.0547
     14  CG         7.0610   19.3470    2.9840 C.ar    5  PHE5       -0.0202
     15  CD1        6.6350   20.2830    2.0690 C.ar    5  PHE5       -0.0042
     16  CD2        7.8860   18.3200    2.5600 C.ar    5  PHE5       -0.0042
     17  CE1        7.0110   20.2080    0.7870 C.ar    5  PHE5       -0.0003
     18  CE2        8.2820   18.2260    1.2860 C.ar    5  PHE5       -0.0003
     19  CZ         7.8530   19.1800    0.3800 C.ar    5  PHE5       -0.0000
     20  N          4.2250   17.5510    4.7410 N.am    6  LYS6       -0.1980
     21  CA         3.4180   16.4140    4.3310 C.3     6  LYS6        0.1596
     22  C          2.0070   16.9260    4.0700 C.2     6  LYS6        0.2287
     23  O          1.3660   16.5970    3.0640 O.2     6  LYS6       -0.2864
     24  CB         3.4130   15.3490    5.4260 C.3     6  LYS6        0.0298
     25  CG         4.3900   14.1850    5.2210 C.3     6  LYS6        0.0038
     26  CD         5.2370   13.8530    6.4760 C.3     6  LYS6        0.0206
     27  CE         5.5560   12.3360    6.5780 C.3     6  LYS6        0.1093
     28  NZ         6.6500   11.9810    7.5580 N.3     6  LYS6       -0.1314
     29  N          1.4960   19.0390    0.8470 N.3     9  ILE9       -0.1245
     30  CA         1.3890   18.1860   -0.3340 C.3     9  ILE9        0.1561
     31  C         -0.0080   17.5790   -0.5080 C.2     9  ILE9        0.2260
     32  O         -0.6070   17.7050   -1.5670 O.2     9  ILE9       -0.2867
     33  CB         2.4530   17.0960   -0.3140 C.3     9  ILE9        0.0252
     34  CG1        3.8210   17.7320   -0.3990 C.3     9  ILE9        0.0019
     35  CG2        2.2970   16.1890   -1.4930 C.3     9  ILE9        0.0019
     36  CD1        4.9520   16.7620   -0.0480 C.3     9  ILE9        0.0001
     37  N          1.1140   11.2380   -0.3730 N.3    18  TRP18      -0.1241
     38  CA         2.4010   11.9040   -0.1660 C.3    18  TRP18       0.1605
     39  C          3.6130   10.9920   -0.1730 C.2    18  TRP18       0.2264
     40  O          4.7070   11.4610   -0.4270 O.2    18  TRP18      -0.2867
     41  CB         2.4230   12.6420    1.1670 C.3    18  TRP18       0.0550
     42  CG         2.2850   11.7330    2.3300 C.ar   18  TRP18       0.0003
     43  CD1        1.1170   11.3490    2.9110 C.ar   18  TRP18       0.0946
     44  CD2        3.3290   11.1250    3.0920 C.ar   18  TRP18       0.0152
     45  NE1        1.3630   10.5240    3.9810 N.ar   18  TRP18      -0.2442
     46  CE2        2.7160   10.3690    4.1160 C.ar   18  TRP18       0.0810
     47  CE3        4.7160   11.1230    3.0060 C.ar   18  TRP18       0.0012
     48  CZ2        3.4390    9.6200    5.0370 C.ar   18  TRP18       0.0191
     49  CZ3        5.4420   10.3770    3.9330 C.ar   18  TRP18       0.0001
     50  CH2        4.8010    9.6370    4.9310 C.ar   18  TRP18       0.0015
     51  N          6.2660   10.8890   -2.8850 N.3    21  PHE21      -0.1227
     52  CA         7.2480   11.9410   -2.9560 C.3    21  PHE21       0.1736
     53  C          8.3400   11.7620   -1.9240 C.2    21  PHE21       0.2595
     54  O          9.3470   12.4420   -1.9840 O.2    21  PHE21      -0.2718
     55  CB         6.5580   13.2740   -2.7720 C.3    21  PHE21       0.0547
     56  CG         5.5640   13.5840   -3.8500 C.ar   21  PHE21      -0.0202
     57  CD1        5.9720   14.1250   -5.0570 C.ar   21  PHE21      -0.0042
     58  CD2        4.2270   13.3500   -3.6490 C.ar   21  PHE21      -0.0042
     59  CE1        5.0720   14.4040   -6.0400 C.ar   21  PHE21      -0.0003
     60  CE2        3.3110   13.6570   -4.6280 C.ar   21  PHE21      -0.0003
     61  CZ         3.7360   14.1780   -5.8380 C.ar   21  PHE21      -0.0000
     62  N          8.1580   10.8260   -0.9990 N.am   22  ALA22      -0.1980
     63  CA         9.1260   10.5970    0.0570 C.3    22  ALA22       0.1597
     64  C         10.4240   10.0990   -0.4300 C.2    22  ALA22       0.2287
     65  O         11.3920   10.5070    0.1040 O.2    22  ALA22      -0.2864
     66  CB         8.6120    9.6210    1.0570 C.3    22  ALA22       0.0319
     67  N         16.7660   13.7000   -5.2960 N.3    27  TYR27      -0.1227
     68  CA        16.6570   14.7210   -4.2560 C.3    27  TYR27       0.1736
     69  C         15.4410   14.5770   -3.3340 C.2    27  TYR27       0.2596
     70  O         15.5050   14.8810   -2.1590 O.2    27  TYR27      -0.2718
     71  CB        16.7710   16.1420   -4.8520 C.3    27  TYR27       0.0548
     72  CG        18.1900   16.4500   -5.3110 C.ar   27  TYR27      -0.0200
     73  CD1       18.6260   16.0760   -6.5630 C.ar   27  TYR27      -0.0009
     74  CD2       19.1190   17.0700   -4.4650 C.ar   27  TYR27      -0.0009
     75  CE1       19.9480   16.3380   -6.9810 C.ar   27  TYR27       0.0417
     76  CE2       20.4410   17.3200   -4.8790 C.ar   27  TYR27       0.0417
     77  CZ        20.8330   16.9560   -6.1360 C.ar   27  TYR27       0.1957
     78  OH        22.0980   17.1860   -6.5850 O.3    27  TYR27      -0.2866
     79  N         14.3290   14.1010   -3.8340 N.am   28  CYS28      -0.1956
     80  CA        13.1650   13.9690   -2.9680 C.3    28  CYS28       0.1843
     81  C         13.3570   12.9460   -1.8420 C.2    28  CYS28       0.2626
     82  O         13.3740   11.7370   -2.0750 O.2    28  CYS28      -0.2714
     83  CB        11.9490   13.5460   -3.7710 C.3    28  CYS28       0.0997
     84  SG        11.7130   14.4440   -5.2730 S.3    28  CYS28      -0.0797
     85  N         13.4260   13.4510   -0.6170 N.am   29  GLY29      -0.1940
     86  CA        13.5920   12.6230    0.5550 C.3    29  GLY29       0.2014
     87  C         14.9610   12.8870    1.0720 C.2    29  GLY29       0.2638
     88  O         15.3060   14.0210    1.3080 O.2    29  GLY29      -0.2714
     89  N         15.7490   11.8480    1.2190 N.am   30  LYS30      -0.1977
     90  CA        17.1020   12.0170    1.6520 C.3    30  LYS30       0.1596
     91  C         17.9320   12.3170    0.4130 C.2    30  LYS30       0.2287
     92  O         17.4610   12.3240   -0.7490 O.2    30  LYS30      -0.2864
     93  CB        17.6140   10.7380    2.3060 C.3    30  LYS30       0.0298
     94  CG        17.2780    9.4630    1.5380 C.3    30  LYS30       0.0038
     95  CD        18.2540    8.3250    1.8390 C.3    30  LYS30       0.0206
     96  CE        18.1000    7.1900    0.8160 C.3    30  LYS30       0.1093
     97  NZ        16.7550    6.5470    0.8220 N.3    30  LYS30      -0.1314
     98  N         12.5960   18.9280   -5.9440 N.3    44  CYS44      -0.1235
     99  CA        13.1870   18.5470   -4.6790 C.3    44  CYS44       0.1677
    100  C         14.6020   19.0930   -4.5350 C.2    44  CYS44       0.2270
    101  O         15.0160   19.4420   -3.4500 O.2    44  CYS44      -0.2867
    102  CB        13.1380   17.0280   -4.4850 C.3    44  CYS44       0.0956
    103  SG        11.4440   16.3500   -4.6190 S.3    44  CYS44      -0.0801
    104  N         14.3120   22.3940   -3.3720 N.3    47  HIS47      -0.1226
    105  CA        13.7980   22.3220   -1.9980 C.3    47  HIS47       0.1752
    106  C         14.9060   22.0490   -0.9430 C.2    47  HIS47       0.2596
    107  O         14.9860   22.7020    0.1000 O.2    47  HIS47      -0.2718
    108  CB        12.7180   21.2590   -1.9340 C.3    47  HIS47       0.0759
    109  CG        11.9900   21.2080   -0.6260 C.ar   47  HIS47       0.0818
    110  ND1       12.1510   20.1740    0.2650 N.ar   47  HIS47      -0.2268
    111  CD2       11.0880   22.0480   -0.0770 C.ar   47  HIS47       0.1154
    112  CE1       11.3620   20.3690    1.2990 C.ar   47  HIS47       0.1986
    113  NE2       10.7210   21.5110    1.1270 N.ar   47  HIS47      -0.2212
    114  N         15.7550   21.0790   -1.2500 N.am   48  ASP48      -0.1974
    115  CA        16.8760   20.7180   -0.3950 C.3    48  ASP48       0.1709
    116  C         17.7990   21.8980   -0.1960 C.2    48  ASP48       0.2293
    117  O         18.1590   22.2310    0.8950 O.2    48  ASP48      -0.2864
    118  CB        17.6190   19.5440   -0.9740 C.3    48  ASP48       0.1436
    119  CG        16.8450   18.2350   -0.8090 C.2    48  ASP48       0.3671
    120  OD1       15.8140   18.2520   -0.0760 O.co2  48  ASP48      -0.2456
    121  OD2       17.1960   17.1640   -1.3750 O.co2  48  ASP48      -0.2456
    122  N         13.4820   20.7370    9.2090 N.3    63  TYR63      -0.1241
    123  CA        12.6460   19.5420    9.3780 C.3    63  TYR63       0.1605
    124  C         11.7680   19.6700   10.6050 C.2    63  TYR63       0.2264
    125  O         10.6780   19.1060   10.6390 O.2    63  TYR63      -0.2867
    126  CB        13.4740   18.2580    9.4810 C.3    63  TYR63       0.0534
    127  CG        13.9900   17.7130    8.1630 C.ar   63  TYR63      -0.0201
    128  CD1       15.0200   18.3210    7.4830 C.ar   63  TYR63      -0.0009
    129  CD2       13.4590   16.5620    7.6200 C.ar   63  TYR63      -0.0009
    130  CE1       15.4960   17.8090    6.2880 C.ar   63  TYR63       0.0417
    131  CE2       13.9190   16.0460    6.4310 C.ar   63  TYR63       0.0417
    132  CZ        14.9320   16.6710    5.7630 C.ar   63  TYR63       0.1957
    133  OH        15.3850   16.1370    4.5680 O.3    63  TYR63      -0.2866
    134  N          5.5500   20.5470   -7.1150 N.3   100  PHE100     -0.1241
    135  CA         5.1020   19.1510   -7.2030 C.3   100  PHE100      0.1605
    136  C          3.8380   18.9450   -8.0520 C.2   100  PHE100      0.2264
    137  O          3.7410   18.0130   -8.8340 O.2   100  PHE100     -0.2867
    138  CB         4.8360   18.5800   -5.8130 C.3   100  PHE100      0.0534
    139  CG         6.0670   18.2790   -5.0290 C.ar  100  PHE100     -0.0203
    140  CD1        7.2840   18.8290   -5.3740 C.ar  100  PHE100     -0.0042
    141  CD2        5.9960   17.4740   -3.9140 C.ar  100  PHE100     -0.0042
    142  CE1        8.4020   18.5730   -4.6350 C.ar  100  PHE100     -0.0003
    143  CE2        7.1140   17.2210   -3.1690 C.ar  100  PHE100     -0.0003
    144  CZ         8.3180   17.7660   -3.5330 C.ar  100  PHE100     -0.0000
@<TRIPOS>BOND
     1   137   136    2
     2   136   135    1
     3   135   134    1
     4   135   138    1
     5    75    73   ar
     6    75    77   ar
     7    78    77    1
     8    73    72   ar
     9    77    76   ar
    10    59    61   ar
    11    59    57   ar
    12    98    99    1
    13    61    60   ar
    14   138   139    1
    15   140   139   ar
    16   140   142   ar
    17    72    71    1
    18    72    74   ar
    19    67    68    1
    20    84   103    1
    21    84    83    1
    22    57    56   ar
    23   139   141   ar
    24    76    74   ar
    25    71    68    1
    26    99   100    1
    27    99   102    1
    28   142   144   ar
    29    60    58   ar
    30   103   102    1
    31   100   101    2
    32    68    69    1
    33   141   143   ar
    34    56    58   ar
    35    56    55    1
    36    79    69   am
    37    79    80    1
    38    83    80    1
    39   144   143   ar
    40   104   105    1
    41    69    70    2
    42    80    81    1
    43    52    51    1
    44    52    55    1
    45    52    53    1
    46    82    81    2
    47   105   108    1
    48   105   106    1
    49    54    53    2
    50   108   109    1
    51    53    62   am
    52    81    85   am
    53    32    31    2
    54    35    33    1
    55   121   119   ar
    56   114   106   am
    57   114   115    1
    58    62    63    1
    59   118   119    1
    60   118   115    1
    61   106   107    2
    62   119   120   ar
    63    92    91    2
    64   109   111   ar
    65   109   110   ar
    66    85    86    1
    67    31    30    1
    68    64    63    1
    69    64    65    2
    70    40    39    2
    71    34    33    1
    72    34    36    1
    73   115   116    1
    74    37    38    1
    75    30    33    1
    76    30    29    1
    77   116   117    2
    78    39    38    1
    79    38    41    1
    80   111   113   ar
    81    63    66    1
    82   110   112   ar
    83    19    17   ar
    84    19    18   ar
    85    91    90    1
    86    86    87    1
    87    17    15   ar
    88    96    97    1
    89    96    95    1
    90    87    89   am
    91    87    88    2
    92   113   112   ar
    93    41    42    1
    94    89    90    1
    95    18    16   ar
    96    94    95    1
    97    94    93    1
    98    90    93    1
    99    15    14   ar
   100    42    43   ar
   101    42    44   ar
   102    16    14   ar
   103    12    11    2
   104    43    45   ar
   105    14    13    1
   106    47    44   ar
   107    47    49   ar
   108    23    22    2
   109    44    46   ar
   110    49    50   ar
   111    45    46   ar
   112    11    10    1
   113    11    20   am
   114    22    21    1
   115    46    48   ar
   116    21    20    1
   117    21    24    1
   118    13    10    1
   119   133   132    1
   120    10     9    1
   121    50    48   ar
   122    25    24    1
   123    25    26    1
   124   132   130   ar
   125   132   131   ar
   126   130   128   ar
   127   131   129   ar
   128     7     6    1
   129    26    27    1
   130    27    28    1
   131     4     3    2
   132     6     8    1
   133     6     5    1
   134   128   127   ar
   135   129   127   ar
   136     2     3    1
   137     2     5    1
   138     2     1    1
   139   127   126    1
   140   122   123    1
   141   123   126    1
   142   123   124    1
   143   124   125    2
