@<TRIPOS>MOLECULE
tmp/1tdgA02.pdb
 113 103 0 0 0
SMALL
GASTEIGER

@<TRIPOS>ATOM
      1  N          8.7600   32.6610    8.5640 N.3    45  SER45      -0.1217
      2  CA         8.4080   31.5160    7.7280 C.3    45  SER45       0.1889
      3  C          8.7840   30.1430    8.2830 C.2    45  SER45       0.2288
      4  O          8.2170   29.1270    7.8650 O.2    45  SER45      -0.2866
      5  CB         9.0400   31.6850    6.3410 C.3    45  SER45       0.2089
      6  OG         8.3850   32.7690    5.6410 O.3    45  SER45      -0.2183
      7  N          6.2520   27.3160    9.4790 N.3    48  LYS48      -0.1245
      8  CA         5.5580   26.4060    8.5780 C.3    48  LYS48       0.1561
      9  C          5.9220   24.9380    8.7370 C.2    48  LYS48       0.2260
     10  O          5.1120   24.0610    8.4190 O.2    48  LYS48      -0.2867
     11  CB         5.7520   26.8630    7.1270 C.3    48  LYS48       0.0271
     12  CG         5.0990   28.2230    6.8740 C.3    48  LYS48       0.0035
     13  CD         5.3200   28.7360    5.4680 C.3    48  LYS48       0.0206
     14  CE         4.7740   30.1520    5.3340 C.3    48  LYS48       0.1093
     15  NZ         4.8450   30.6560    3.9400 N.3    48  LYS48      -0.1314
     16  N         -0.5260   38.2510    0.5380 N.3    79  ASP79      -0.1225
     17  CA         0.7230   38.5630   -0.1390 C.3    79  ASP79       0.1805
     18  C          1.6720   37.3840   -0.3470 C.2    79  ASP79       0.2597
     19  O          2.0480   36.6960    0.6010 O.2    79  ASP79      -0.2718
     20  CB         1.4310   39.6930    0.6220 C.3    79  ASP79       0.1424
     21  CG         2.6960   40.1620   -0.0650 C.2    79  ASP79       0.3668
     22  OD1        2.7800   40.0570   -1.3010 O.co2  79  ASP79      -0.2456
     23  OD2        3.6040   40.6540    0.6370 O.co2  79  ASP79      -0.2456
     24  N          2.0450   37.1750   -1.6080 N.am   80  TYR80      -0.1976
     25  CA         2.9650   36.1270   -2.0480 C.3    80  TYR80       0.1639
     26  C          2.3880   34.7240   -1.9920 C.2    80  TYR80       0.2290
     27  O          2.5070   34.0160   -0.9870 O.2    80  TYR80      -0.2864
     28  CB         4.2750   36.1620   -1.2620 C.3    80  TYR80       0.0560
     29  CG         5.3780   35.4560   -2.0090 C.ar   80  TYR80      -0.0198
     30  CD1        5.8830   35.9890   -3.1920 C.ar   80  TYR80      -0.0009
     31  CD2        5.8580   34.2160   -1.5860 C.ar   80  TYR80      -0.0009
     32  CE1        6.8300   35.3070   -3.9430 C.ar   80  TYR80       0.0417
     33  CE2        6.8140   33.5210   -2.3370 C.ar   80  TYR80       0.0417
     34  CZ         7.2880   34.0750   -3.5130 C.ar   80  TYR80       0.1957
     35  OH         8.2030   33.3930   -4.2780 O.3    80  TYR80      -0.2866
     36  N          7.4830   28.7880   -0.1240 N.3   105  GLY105     -0.1225
     37  CA         7.1800   29.9670    0.6720 C.3   105  GLY105      0.1811
     38  C          5.8150   30.5830    0.4070 C.2   105  GLY105      0.2280
     39  O          5.6170   31.7770    0.6270 O.2   105  GLY105     -0.2866
     40  N          2.4480   31.9200    1.0880 N.3   107  ASN107     -0.1240
     41  CA         1.7610   32.4080    2.2860 C.3   107  ASN107      0.1653
     42  C          0.2870   32.0730    2.3920 C.2   107  ASN107      0.2266
     43  O         -0.2250   31.8350    3.4940 O.2   107  ASN107     -0.2867
     44  CB         1.9490   33.9190    2.4320 C.3   107  ASN107      0.1155
     45  CG         3.3540   34.2790    2.8500 C.2   107  ASN107      0.2627
     46  OD1        3.9650   33.5730    3.6520 O.2   107  ASN107     -0.2716
     47  ND2        3.8700   35.3790    2.3250 N.am  107  ASN107     -0.0877
     48  N          0.3100   37.8580    6.4130 N.3   142  THR142     -0.1218
     49  CA         1.7450   38.0290    6.6150 C.3   142  THR142      0.1862
     50  C          2.1030   38.8300    7.8710 C.2   142  THR142      0.2287
     51  O          3.2850   39.0940    8.1190 O.2   142  THR142     -0.2866
     52  CB         2.3830   38.7510    5.4080 C.3   142  THR142      0.1770
     53  OG1        1.7540   40.0290    5.2440 O.3   142  THR142     -0.2211
     54  CG2        2.2040   37.9390    4.1260 C.3   142  THR142      0.0375
     55  N          5.0850   38.2490   10.5510 N.3   145  ASN145     -0.1240
     56  CA         6.4860   38.5730   10.2660 C.3   145  ASN145      0.1653
     57  C          6.8650   39.9920   10.7100 C.2   145  ASN145      0.2266
     58  O          7.9870   40.4470   10.4540 O.2   145  ASN145     -0.2867
     59  CB         6.7580   38.4650    8.7570 C.3   145  ASN145      0.1155
     60  CG         6.4340   37.0990    8.2000 C.2   145  ASN145      0.2627
     61  OD1        7.0800   36.1090    8.5410 O.2   145  ASN145     -0.2716
     62  ND2        5.4220   37.0360    7.3370 N.am  145  ASN145     -0.0877
     63  N         13.4280   27.4600   -2.2920 N.3   191  VAL191     -0.1245
     64  CA        13.8180   28.8430   -2.0270 C.3   191  VAL191      0.1561
     65  C         15.2990   29.0290   -1.6890 C.2   191  VAL191      0.2260
     66  O         15.9800   29.8490   -2.2990 O.2   191  VAL191     -0.2867
     67  CB        12.9750   29.4430   -0.8700 C.3   191  VAL191      0.0252
     68  CG1       13.4620   30.8480   -0.5410 C.3   191  VAL191      0.0019
     69  CG2       11.4980   29.4770   -1.2620 C.3   191  VAL191      0.0019
     70  N         14.2940   25.2090    5.9390 N.3   209  LYS209     -0.1231
     71  CA        13.1640   26.1180    5.8030 C.3   209  LYS209      0.1693
     72  C         13.7150   27.4450    6.3230 C.2   209  LYS209      0.2593
     73  O         14.1860   27.5290    7.4630 O.2   209  LYS209     -0.2718
     74  CB        11.9560   25.7150    6.6420 C.3   209  LYS209      0.0285
     75  CG        10.8190   26.7440    6.5240 C.3   209  LYS209      0.0035
     76  CD        10.4170   26.9760    5.0620 C.3   209  LYS209      0.0206
     77  CE         9.4110   28.1170    4.9440 C.3   209  LYS209      0.1093
     78  NZ         9.0500   28.4280    3.5320 N.3   209  LYS209     -0.1314
     79  N         13.6690   28.4760    5.4850 N.am  210  THR210     -0.1939
     80  CA        14.1710   29.7900    5.8700 C.3   210  THR210      0.2028
     81  C         13.0250   30.7770    6.0310 C.2   210  THR210      0.2643
     82  O         11.8980   30.5110    5.6090 O.2   210  THR210     -0.2714
     83  CB        15.1440   30.3570    4.8130 C.3   210  THR210      0.1808
     84  OG1       14.4740   30.4530    3.5520 O.3   210  THR210     -0.2208
     85  CG2       16.3660   29.4550    4.6670 C.3   210  THR210      0.0379
     86  N         13.3230   31.9170    6.6470 N.am  211  GLY211     -0.1939
     87  CA        12.3140   32.9380    6.8490 C.3   211  GLY211      0.2014
     88  C         12.9450   34.3060    6.9970 C.2   211  GLY211      0.2638
     89  O         14.1300   34.4220    7.3110 O.2   211  GLY211     -0.2714
     90  N         12.1480   35.3440    6.7740 N.am  212  ALA212     -0.1977
     91  CA        12.6200   36.7210    6.8870 C.3   212  ALA212      0.1597
     92  C         11.4790   37.5960    7.3850 C.2   212  ALA212      0.2287
     93  O         10.3090   37.2950    7.1490 O.2   212  ALA212     -0.2864
     94  CB        13.1100   37.2260    5.5340 C.3   212  ALA212      0.0319
     95  N         15.6130   37.4220   10.4420 N.3   218  ARG218     -0.1245
     96  CA        16.0010   36.4200    9.4560 C.3   218  ARG218      0.1563
     97  C         16.2240   35.1150   10.1980 C.2   218  ARG218      0.2260
     98  O         16.6080   35.1180   11.3690 O.2   218  ARG218     -0.2867
     99  CB        17.3060   36.8500    8.7750 C.3   218  ARG218      0.0307
    100  CG        17.7670   35.9770    7.6100 C.3   218  ARG218      0.0489
    101  CD        16.9530   36.2750    6.3750 C.3   218  ARG218      0.2205
    102  NE        17.4670   35.6340    5.1640 N.pl3 218  ARG218     -0.0865
    103  CZ        16.7760   34.7650    4.4310 C.cat 218  ARG218      0.5346
    104  NH1       15.5460   34.4150    4.7920 N.pl3 218  ARG218      0.1354
    105  NH2       17.2930   34.2790    3.3100 N.pl3 218  ARG218      0.1354
    106  N         19.7700   42.4380    3.3650 N.3   245  MET245     -0.1245
    107  CA        19.4420   41.0220    3.3220 C.3   245  MET245      0.1570
    108  C         20.6980   40.2510    2.9380 C.2   245  MET245      0.2261
    109  O         20.9740   39.1880    3.4890 O.2   245  MET245     -0.2867
    110  CB        18.3430   40.7680    2.2860 C.3   245  MET245      0.0387
    111  CG        18.0110   39.2940    2.0650 C.3   245  MET245      0.0595
    112  SD        17.2200   38.5240    3.4960 S.3   245  MET245     -0.1393
    113  CE        15.5810   39.2210    3.3620 C.3   245  MET245      0.0692
@<TRIPOS>BOND
     1    35    34    1
     2    32    34   ar
     3    32    30   ar
     4    34    33   ar
     5    30    29   ar
     6    33    31   ar
     7    66    65    2
     8    63    64    1
     9    25    26    1
    10    25    24    1
    11    25    28    1
    12    64    65    1
    13    64    67    1
    14    29    31   ar
    15    29    28    1
    16    26    27    2
    17    24    18   am
    18    22    21   ar
    19    69    67    1
    20    67    68    1
    21    18    17    1
    22    18    19    2
    23    17    16    1
    24    17    20    1
    25    36    37    1
    26    21    20    1
    27    21    23   ar
    28    38    39    2
    29    38    37    1
    30    40    41    1
    31   111   110    1
    32   111   112    1
    33   110   107    1
    34    41    42    1
    35    41    44    1
    36    47    45   am
    37    42    43    2
    38    44    45    1
    39    45    46    2
    40   108   107    1
    41   108   109    2
    42   105   103    1
    43   107   106    1
    44   113   112    1
    45    78    77    1
    46    84    83    1
    47    15    14    1
    48    54    52    1
    49   103   104    1
    50   103   102    2
    51    85    83    1
    52    83    80    1
    53    77    76    1
    54    76    75    1
    55   102   101    1
    56    53    52    1
    57    14    13    1
    58    52    49    1
    59    13    12    1
    60    79    80    1
    61    79    72   am
    62    94    91    1
    63    82    81    2
    64     6     5    1
    65    71    70    1
    66    71    72    1
    67    71    74    1
    68    80    81    1
    69    81    86   am
    70    72    73    2
    71     5     2    1
    72   101   100    1
    73    48    49    1
    74    75    74    1
    75    49    50    1
    76    86    87    1
    77    90    91    1
    78    90    88   am
    79    87    88    1
    80    12    11    1
    81    91    92    1
    82    88    89    2
    83    11     8    1
    84    93    92    2
    85    62    60   am
    86   100    99    1
    87     2     3    1
    88     2     1    1
    89     4     3    2
    90    50    51    2
    91    60    61    2
    92    60    59    1
    93    10     9    2
    94     8     9    1
    95     8     7    1
    96    59    56    1
    97    99    96    1
    98    96    97    1
    99    96    95    1
   100    97    98    2
   101    56    55    1
   102    56    57    1
   103    58    57    2
