@<TRIPOS>MOLECULE
tmp/1tdhA00.pdb
 91 87 0 0 0
SMALL
GASTEIGER

@<TRIPOS>ATOM
      1  N         25.0530   15.0670    7.9320 N.3     1  PRO1       -0.2116
      2  CA        24.6630   16.3570    8.5410 C.3     1  PRO1        0.1372
      3  C         25.8860   17.1540    8.9680 C.2     1  PRO1        0.2244
      4  O         27.0080   16.6340    9.0070 O.2     1  PRO1       -0.2868
      5  CB        23.7990   16.0330    9.7530 C.3     1  PRO1        0.0268
      6  CG        23.2420   14.6760    9.3800 C.3     1  PRO1        0.0207
      7  CD        24.3720   13.9620    8.6320 C.3     1  PRO1        0.0892
      8  N         23.1500   19.2740   14.3070 N.3     6  LEU6       -0.1245
      9  CA        23.2900   18.5020   15.5310 C.3     6  LEU6        0.1561
     10  C         23.0210   19.3860   16.7440 C.2     6  LEU6        0.2260
     11  O         22.3430   18.9680   17.6860 O.2     6  LEU6       -0.2867
     12  CB        24.6880   17.8750   15.6220 C.3     6  LEU6        0.0270
     13  CG        24.9620   16.6320   14.7540 C.3     6  LEU6        0.0019
     14  CD1       23.9700   15.5400   15.1050 C.3     6  LEU6        0.0001
     15  CD2       24.8610   16.9780   13.2780 C.3     6  LEU6        0.0001
     16  N         29.6070   16.6440   14.7890 N.3    53  LYS53      -0.1245
     17  CA        28.5380   15.9300   14.1040 C.3    53  LYS53       0.1561
     18  C         27.9510   14.8000   14.9490 C.2    53  LYS53       0.2260
     19  O         27.3560   13.8600   14.4160 O.2    53  LYS53      -0.2867
     20  CB        29.0490   15.3730   12.7680 C.3    53  LYS53       0.0271
     21  CG        29.4450   16.4560   11.7730 C.3    53  LYS53       0.0035
     22  CD        30.0560   15.8790   10.5060 C.3    53  LYS53       0.0206
     23  CE        30.5510   16.9850    9.5930 C.3    53  LYS53       0.1093
     24  NZ        31.3490   16.4640    8.4390 N.3    53  LYS53      -0.1314
     25  N         25.0250    9.4210   15.5370 N.3    77  ARG77      -0.1231
     26  CA        25.5510    9.9840   14.3040 C.3    77  ARG77       0.1694
     27  C         24.3290    9.8350   13.4050 C.2    77  ARG77       0.2592
     28  O         23.8650    8.7240   13.1580 O.2    77  ARG77      -0.2718
     29  CB        26.7230    9.1610   13.7820 C.3    77  ARG77       0.0321
     30  CG        28.0320    9.4250   14.5020 C.3    77  ARG77       0.0489
     31  CD        29.1160    8.4770   14.0250 C.3    77  ARG77       0.2205
     32  NE        28.9270    7.1310   14.5630 N.pl3  77  ARG77      -0.0865
     33  CZ        29.6230    6.0680   14.1760 C.cat  77  ARG77       0.5346
     34  NH1       30.5550    6.1930   13.2400 N.pl3  77  ARG77       0.1354
     35  NH2       29.4000    4.8840   14.7350 N.pl3  77  ARG77       0.1354
     36  N         23.7970   10.9610   12.9400 N.am   78  PHE78      -0.1962
     37  CA        22.5840   10.9830   12.1210 C.3    78  PHE78       0.1771
     38  C         22.6060   10.3260   10.7510 C.2    78  PHE78       0.2620
     39  O         21.6790    9.6000   10.3810 O.2    78  PHE78      -0.2715
     40  CB        22.1300   12.4290   11.9240 C.3    78  PHE78       0.0574
     41  CG        21.4550   13.0370   13.1200 C.ar   78  PHE78      -0.0200
     42  CD1       21.6420   12.5250   14.3980 C.ar   78  PHE78      -0.0042
     43  CD2       20.6700   14.1740   12.9620 C.ar   78  PHE78      -0.0042
     44  CE1       21.0560   13.1440   15.4990 C.ar   78  PHE78      -0.0003
     45  CE2       20.0830   14.8000   14.0500 C.ar   78  PHE78      -0.0003
     46  CZ        20.2760   14.2860   15.3220 C.ar   78  PHE78      -0.0000
     47  N         23.6510   10.5940    9.9840 N.am   79  GLY79      -0.1940
     48  CA        23.6910   10.0500    8.6470 C.3    79  GLY79       0.2014
     49  C         22.7830   10.9090    7.7850 C.2    79  GLY79       0.2638
     50  O         22.1840   11.8810    8.2560 O.2    79  GLY79      -0.2714
     51  N         22.6820   10.5400    6.5170 N.am   80  MET80      -0.1976
     52  CA        21.8780   11.2480    5.5300 C.3    80  MET80       0.1605
     53  C         20.4280   11.5420    5.9140 C.2    80  MET80       0.2287
     54  O         19.9180   12.6290    5.6410 O.2    80  MET80      -0.2864
     55  CB        21.9010   10.4520    4.2190 C.3    80  MET80       0.0413
     56  CG        20.9760   10.9510    3.1150 C.3    80  MET80       0.0598
     57  SD        21.3460   12.6320    2.5710 S.3    80  MET80      -0.1393
     58  CE        22.9880   12.4200    1.8290 C.3    80  MET80       0.0692
     59  N         21.5050    4.9790    7.7030 N.3   119  PHE119     -0.1241
     60  CA        22.9300    5.2870    7.6680 C.3   119  PHE119      0.1605
     61  C         23.3370    5.8020    9.0390 C.2   119  PHE119      0.2264
     62  O         24.5230    5.9160    9.3430 O.2   119  PHE119     -0.2867
     63  CB        23.2530    6.3520    6.6070 C.3   119  PHE119      0.0534
     64  CG        23.0510    5.8840    5.1930 C.ar  119  PHE119     -0.0203
     65  CD1       23.4030    4.5910    4.8210 C.ar  119  PHE119     -0.0042
     66  CD2       22.5240    6.7390    4.2300 C.ar  119  PHE119     -0.0042
     67  CE1       23.2350    4.1520    3.5100 C.ar  119  PHE119     -0.0003
     68  CE2       22.3530    6.3110    2.9140 C.ar  119  PHE119     -0.0003
     69  CZ        22.7080    5.0140    2.5550 C.ar  119  PHE119     -0.0000
     70  N         23.8560    5.9330   13.1520 N.3   121  ARG121     -0.1245
     71  CA        24.3970    4.9620   14.0860 C.3   121  ARG121      0.1563
     72  C         24.3990    5.5000   15.5000 C.2   121  ARG121      0.2260
     73  O         24.3900    6.7070   15.7130 O.2   121  ARG121     -0.2867
     74  CB        25.8250    4.5960   13.6760 C.3   121  ARG121      0.0307
     75  CG        25.8950    3.7840   12.4010 C.3   121  ARG121      0.0489
     76  CD        27.3160    3.3520   12.0920 C.3   121  ARG121      0.2205
     77  NE        27.3850    2.4160   10.9710 N.pl3 121  ARG121     -0.0865
     78  CZ        27.2360    2.7660    9.6990 C.cat 121  ARG121      0.5346
     79  NH1       27.0140    4.0320    9.3840 N.pl3 121  ARG121      0.1354
     80  NH2       27.2770    1.8490    8.7420 N.pl3 121  ARG121      0.1354
     81  N         38.0870   12.5910   17.1170 N.3   132  ARG132     -0.1245
     82  CA        37.4100   13.8130   16.6810 C.3   132  ARG132      0.1563
     83  C         37.8620   14.9760   17.5400 C.2   132  ARG132      0.2260
     84  O         37.9330   14.8590   18.7610 O.2   132  ARG132     -0.2867
     85  CB        35.8870   13.6770   16.7790 C.3   132  ARG132      0.0307
     86  CG        35.2660   12.7120   15.7840 C.3   132  ARG132      0.0489
     87  CD        33.7430   12.7870   15.8450 C.3   132  ARG132      0.2205
     88  NE        33.1960   13.7420   14.8940 N.pl3 132  ARG132     -0.0865
     89  CZ        32.7220   13.4120   13.6970 C.cat 132  ARG132      0.5346
     90  NH1       32.7200   12.1440   13.3050 N.pl3 132  ARG132      0.1354
     91  NH2       32.2650   14.3560   12.8840 N.pl3 132  ARG132      0.1354
@<TRIPOS>BOND
     1    58    57    1
     2    69    68   ar
     3    69    67   ar
     4    57    56    1
     5    68    66   ar
     6    56    55    1
     7    67    65   ar
     8    55    52    1
     9    66    64   ar
    10    65    64   ar
    11    64    63    1
    12    52    53    1
    13    52    51    1
    14    54    53    2
    15    51    49   am
    16    63    60    1
    17    60    59    1
    18    60    61    1
    19    49    50    2
    20    49    48    1
    21     1     2    1
    22     1     7    1
    23    24    23    1
    24     2     3    1
    25     2     5    1
    26     7     6    1
    27    48    47    1
    28    80    78    1
    29     3     4    2
    30    61    62    2
    31     6     5    1
    32    79    78    1
    33    23    22    1
    34    78    77    2
    35    47    38   am
    36    39    38    2
    37    22    21    1
    38    38    37    1
    39    77    76    1
    40    21    20    1
    41    40    37    1
    42    40    41    1
    43    76    75    1
    44    37    36    1
    45    75    74    1
    46    20    17    1
    47    91    89    1
    48    36    27   am
    49    43    41   ar
    50    43    45   ar
    51    41    42   ar
    52    70    71    1
    53    28    27    2
    54    34    33    1
    55    15    13    1
    56    90    89    1
    57    27    26    1
    58    74    71    1
    59    89    88    2
    60    29    26    1
    61    29    30    1
    62    31    30    1
    63    31    32    1
    64    45    46   ar
    65    71    72    1
    66    17    16    1
    67    17    18    1
    68    33    32    2
    69    33    35    1
    70    26    25    1
    71     8     9    1
    72    42    44   ar
    73    19    18    2
    74    13    14    1
    75    13    12    1
    76    88    87    1
    77    46    44   ar
    78    72    73    2
    79     9    12    1
    80     9    10    1
    81    86    87    1
    82    86    85    1
    83    82    85    1
    84    82    81    1
    85    82    83    1
    86    10    11    2
    87    83    84    2
