@<TRIPOS>MOLECULE
tmp/1tdjA00.pdb
 139 132 0 0 0
SMALL
GASTEIGER

@<TRIPOS>ATOM
      1  N         -8.4160    8.0690   17.9690 N.3    56  SER56      -0.1202
      2  CA        -9.7780    7.5800   18.1960 C.3    56  SER56       0.2020
      3  C        -10.5410    7.7270   16.9480 C.2    56  SER56       0.2619
      4  O        -10.0160    8.1590   15.9420 O.2    56  SER56      -0.2717
      5  CB       -10.5390    8.3510   19.2230 C.3    56  SER56       0.2103
      6  OG       -10.5860    9.7240   18.8420 O.3    56  SER56      -0.2182
      7  N        -11.8010    7.5270   17.0560 N.am   57  PHE57      -0.1961
      8  CA       -12.5530    7.7090   15.8620 C.3    57  PHE57       0.1771
      9  C        -13.0620    9.1090   15.5130 C.2    57  PHE57       0.2619
     10  O        -13.3040    9.4320   14.3330 O.2    57  PHE57      -0.2715
     11  CB       -13.6450    6.6560   15.7230 C.3    57  PHE57       0.0574
     12  CG       -14.7020    6.9540   16.6780 C.ar   57  PHE57      -0.0200
     13  CD1      -14.5640    6.4530   17.9700 C.ar   57  PHE57      -0.0042
     14  CD2      -15.7650    7.7910   16.3440 C.ar   57  PHE57      -0.0042
     15  CE1      -15.5250    6.7140   18.9400 C.ar   57  PHE57      -0.0003
     16  CE2      -16.7260    8.0730   17.3090 C.ar   57  PHE57      -0.0003
     17  CZ       -16.5960    7.5300   18.5900 C.ar   57  PHE57      -0.0000
     18  N        -13.2950    9.9110   16.5270 N.am   58  LYS58      -0.1977
     19  CA       -13.8970   11.2660   16.3510 C.3    58  LYS58       0.1596
     20  C        -13.6010   12.0550   15.0680 C.2    58  LYS58       0.2287
     21  O        -14.4480   12.8440   14.6110 O.2    58  LYS58      -0.2864
     22  CB       -13.7640   12.1560   17.5720 C.3    58  LYS58       0.0298
     23  CG       -14.5330   11.5880   18.7560 C.3    58  LYS58       0.0038
     24  CD       -15.7620   12.3790   19.1480 C.3    58  LYS58       0.0206
     25  CE       -16.1940   11.8950   20.5020 C.3    58  LYS58       0.1093
     26  NZ       -15.5320   10.6220   20.8970 N.3    58  LYS58      -0.1314
     27  N        -11.4330   14.8320   24.1730 N.3    85  ASN85      -0.1240
     28  CA       -11.0380   13.7840   23.1880 C.3    85  ASN85       0.1653
     29  C        -11.4900   14.0370   21.7640 C.2    85  ASN85       0.2266
     30  O        -11.0600   13.3770   20.8580 O.2    85  ASN85      -0.2867
     31  CB       -11.5970   12.3850   23.5940 C.3    85  ASN85       0.1155
     32  CG       -10.9300   11.1580   22.9400 C.2    85  ASN85       0.2627
     33  OD1       -9.7390   10.8960   23.1220 O.2    85  ASN85      -0.2716
     34  ND2      -11.7290   10.2150   22.5030 N.am   85  ASN85      -0.0877
     35  N        -20.1100   17.1460   19.1770 N.3   152  PRO152     -0.2102
     36  CA       -19.4080   15.9330   19.4120 C.3   152  PRO152      0.1504
     37  C        -20.2750   14.7850   18.8970 C.2   152  PRO152      0.2575
     38  O        -19.7530   13.7590   18.4480 O.2   152  PRO152     -0.2718
     39  CB       -19.2180   15.8390   20.9130 C.3   152  PRO152      0.0282
     40  CG       -20.1130   16.8730   21.5310 C.3   152  PRO152      0.0208
     41  CD       -20.5630   17.7820   20.4300 C.3   152  PRO152      0.0893
     42  N        -21.6050   14.9520   18.9300 N.am  153  PHE153     -0.1977
     43  CA       -22.4020   13.9050   18.3660 C.3   153  PHE153      0.1639
     44  C        -23.6960   14.3550   17.7470 C.2   153  PHE153      0.2290
     45  O        -23.9750   13.9870   16.6060 O.2   153  PHE153     -0.2864
     46  CB       -22.5340   12.6050   19.1640 C.3   153  PHE153      0.0560
     47  CG       -23.2030   12.8920   20.4860 C.ar  153  PHE153     -0.0200
     48  CD1      -22.4450   13.3820   21.5520 C.ar  153  PHE153     -0.0042
     49  CD2      -24.5820   12.8140   20.6520 C.ar  153  PHE153     -0.0042
     50  CE1      -22.9990   13.7600   22.7700 C.ar  153  PHE153     -0.0003
     51  CE2      -25.1500   13.1860   21.8710 C.ar  153  PHE153     -0.0003
     52  CZ       -24.3700   13.6440   22.9300 C.ar  153  PHE153     -0.0000
     53  N        -19.3940    8.8980   10.9470 N.3   162  GLN162     -0.1245
     54  CA       -19.0220    7.7890   11.7760 C.3   162  GLN162      0.1566
     55  C        -19.3760    6.4790   11.1040 C.2   162  GLN162      0.2260
     56  O        -18.6170    5.4830   11.2520 O.2   162  GLN162     -0.2867
     57  CB       -19.7300    7.9110   13.1050 C.3   162  GLN162      0.0367
     58  CG       -19.7040    9.3720   13.5580 C.3   162  GLN162      0.0905
     59  CD       -18.3650    9.7690   14.1300 C.2   162  GLN162      0.2608
     60  OE1      -17.3740    9.8770   13.4360 O.2   162  GLN162     -0.2717
     61  NE2      -18.2970    9.9020   15.4180 N.am  162  GLN162     -0.0878
     62  N        -20.0350    1.0730   21.3230 N.3   182  PRO182     -0.2116
     63  CA       -20.0140    1.8820   22.4900 C.3   182  PRO182      0.1372
     64  C        -20.9870    3.0430   22.3730 C.2   182  PRO182      0.2244
     65  O        -21.2420    3.5540   21.2740 O.2   182  PRO182     -0.2868
     66  CB       -18.5640    2.3480   22.6770 C.3   182  PRO182      0.0268
     67  CG       -17.7170    1.5790   21.7070 C.3   182  PRO182      0.0207
     68  CD       -18.6690    0.6550   20.9690 C.3   182  PRO182      0.0892
     69  N        -21.7960    6.6960   24.0190 N.3   184  GLY184     -0.1210
     70  CA       -21.5790    7.9230   24.7550 C.3   184  GLY184      0.1956
     71  C        -22.8190    8.8140   24.5440 C.2   184  GLY184      0.2612
     72  O        -23.8270    8.7200   25.2950 O.2   184  GLY184     -0.2717
     73  N        -22.7740    9.6330   23.4630 N.am  185  GLY185     -0.1942
     74  CA       -23.8570   10.5240   23.0550 C.3   185  GLY185      0.2014
     75  C        -24.7200    9.8240   22.0670 C.2   185  GLY185      0.2639
     76  O        -25.9110   10.0820   21.9760 O.2   185  GLY185     -0.2714
     77  N        -24.0680    8.8990   21.3710 N.am  186  GLY186     -0.1939
     78  CA       -24.7050    8.0120   20.4020 C.3   186  GLY186      0.2014
     79  C        -24.3060    8.1820   18.9280 C.2   186  GLY186      0.2639
     80  O        -24.9100    7.5710   18.0320 O.2   186  GLY186     -0.2714
     81  N        -23.3060    9.0260   18.6660 N.am  187  GLY187     -0.1939
     82  CA       -22.8950    9.3140   17.2840 C.3   187  GLY187      0.2014
     83  C        -22.5810    8.0610   16.5050 C.2   187  GLY187      0.2638
     84  O        -23.2700    7.6550   15.5430 O.2   187  GLY187     -0.2714
     85  N        -21.5570    7.4390   17.0230 N.am  188  LEU188     -0.1977
     86  CA       -21.0130    6.2000   16.5540 C.3   188  LEU188      0.1596
     87  C        -22.0030    5.0490   16.4370 C.2   188  LEU188      0.2287
     88  O        -21.9790    4.2760   15.5190 O.2   188  LEU188     -0.2864
     89  CB       -20.0410    5.7690   17.6000 C.3   188  LEU188      0.0297
     90  CG       -19.4160    4.5000   17.1910 C.3   188  LEU188      0.0022
     91  CD1      -19.0460    4.6810   15.7380 C.3   188  LEU188      0.0001
     92  CD2      -18.1590    4.4050   18.0310 C.3   188  LEU188      0.0001
     93  N        -14.9230    9.5370   27.5650 N.3   237  GLY237     -0.1210
     94  CA       -15.5180    9.7360   26.2600 C.3   237  GLY237      0.1956
     95  C        -16.9190    9.2110   26.1100 C.2   237  GLY237      0.2611
     96  O        -17.5840    9.6000   25.1600 O.2   237  GLY237     -0.2717
     97  N        -17.3830    8.3690   27.0530 N.am  238  VAL238     -0.1979
     98  CA       -18.7420    7.8400   27.0960 C.3   238  VAL238      0.1595
     99  C        -19.6150    8.5340   28.1820 C.2   238  VAL238      0.2287
    100  O        -20.8130    8.2750   28.4020 O.2   238  VAL238     -0.2864
    101  CB       -18.6480    6.3440   27.2940 C.3   238  VAL238      0.0276
    102  CG1      -19.9820    5.7000   27.6940 C.3   238  VAL238      0.0022
    103  CG2      -18.2320    5.7880   25.9530 C.3   238  VAL238      0.0022
    104  N        -21.9120   10.7170   28.8240 N.3   240  VAL240     -0.1245
    105  CA       -22.9110   11.6360   28.3480 C.3   240  VAL240      0.1561
    106  C        -24.0980   11.5240   29.2530 C.2   240  VAL240      0.2260
    107  O        -24.3920   10.4490   29.7520 O.2   240  VAL240     -0.2867
    108  CB       -23.2210   11.3990   26.8490 C.3   240  VAL240      0.0252
    109  CG1      -24.2270   12.3680   26.2250 C.3   240  VAL240      0.0019
    110  CG2      -21.9120   11.3420   26.0460 C.3   240  VAL240      0.0019
    111  N         -8.6100    2.4710   26.1650 N.3   282  GLU282     -0.1245
    112  CA        -8.8700    3.4660   27.1200 C.3   282  GLU282      0.1567
    113  C        -10.2460    3.0000   27.5900 C.2   282  GLU282      0.2260
    114  O        -10.9940    2.4140   26.7750 O.2   282  GLU282     -0.2867
    115  CB        -8.8060    4.8690   26.4310 C.3   282  GLU282      0.0388
    116  CG       -10.1520    5.3120   25.7870 C.3   282  GLU282      0.1160
    117  CD       -10.1930    6.7290   25.2790 C.2   282  GLU282      0.3649
    118  OE1       -9.2730    6.9060   24.3780 O.co2 282  GLU282     -0.2457
    119  OE2      -11.0230    7.5930   25.6250 O.co2 282  GLU282     -0.2457
    120  N        -13.3310    3.6010   27.5840 N.3   284  SER284     -0.1202
    121  CA       -14.3710    3.4440   26.5840 C.3   284  SER284      0.2020
    122  C        -13.9100    2.6470   25.3840 C.2   284  SER284      0.2619
    123  O        -14.6650    1.9310   24.7470 O.2   284  SER284     -0.2717
    124  CB       -15.0760    4.7520   26.2260 C.3   284  SER284      0.2103
    125  OG       -14.6460    5.8360   27.0690 O.3   284  SER284     -0.2182
    126  N        -12.6490    2.7140   25.0710 N.am  285  GLY285     -0.1956
    127  CA       -12.1950    1.9210   23.9790 C.3   285  GLY285      0.1869
    128  C        -12.3710    0.4290   24.2420 C.2   285  GLY285      0.2309
    129  O        -12.4650   -0.3110   23.2750 O.2   285  GLY285     -0.2863
    130  N        -12.7160    1.8780   20.1400 N.3   311  SER311     -0.1202
    131  CA       -13.0680    3.2890   19.9670 C.3   311  SER311      0.2020
    132  C        -11.9360    4.2820   20.1190 C.2   311  SER311      0.2619
    133  O        -11.7930    5.2060   19.3590 O.2   311  SER311     -0.2717
    134  CB       -14.2120    3.6550   20.9040 C.3   311  SER311      0.2103
    135  OG       -14.0220    2.9980   22.1740 O.3   311  SER311     -0.2182
    136  N        -11.1590    4.1910   21.1450 N.am  312  GLY312     -0.1956
    137  CA       -10.1250    5.2500   21.2910 C.3   312  GLY312      0.1869
    138  C         -8.9670    4.8200   22.1570 C.2   312  GLY312      0.2309
    139  O         -8.8970    3.6870   22.5520 O.2   312  GLY312     -0.2863
@<TRIPOS>BOND
     1    53    54    1
     2    55    56    2
     3    55    54    1
     4    54    57    1
     5    57    58    1
     6    60    59    2
     7    58    59    1
     8    59    61   am
     9    10     9    2
    10    21    20    2
    11    20    19    1
    12     9     8    1
    13     9    18   am
    14    88    87    2
    15    84    83    2
    16    11     8    1
    17    11    12    1
    18    91    90    1
    19     8     7    1
    20     4     3    2
    21    14    12   ar
    22    14    16   ar
    23    19    18    1
    24    19    22    1
    25    87    86    1
    26    83    85   am
    27    83    82    1
    28    86    85    1
    29    86    89    1
    30    45    44    2
    31    12    13   ar
    32     3     7   am
    33     3     2    1
    34    90    89    1
    35    90    92    1
    36    82    81    1
    37    16    17   ar
    38    22    23    1
    39    44    43    1
    40     1     2    1
    41    13    15   ar
    42    80    79    2
    43     2     5    1
    44    43    42    1
    45    43    46    1
    46    38    37    2
    47    17    15   ar
    48    81    79   am
    49    23    24    1
    50     6     5    1
    51    37    42   am
    52    37    36    1
    53    79    78    1
    54    24    25    1
    55    46    47    1
    56    35    36    1
    57    35    41    1
    58   133   132    2
    59    36    39    1
    60   131   132    1
    61   131   130    1
    62   131   134    1
    63   132   136   am
    64    78    77    1
    65    41    40    1
    66    47    49   ar
    67    47    48   ar
    68    25    26    1
    69    49    51   ar
    70    30    29    2
    71   134   135    1
    72    39    40    1
    73    68    62    1
    74    68    67    1
    75   136   137    1
    76    65    64    2
    77   137   138    1
    78    62    63    1
    79    77    75   am
    80    48    50   ar
    81    67    66    1
    82    29    28    1
    83    51    52   ar
    84    76    75    2
    85    75    74    1
    86   138   139    2
    87    64    63    1
    88    63    66    1
    89    34    32   am
    90    50    52   ar
    91    32    33    2
    92    32    31    1
    93    74    73    1
    94    28    31    1
    95    28    27    1
    96   129   128    2
    97    73    71   am
    98   127   128    1
    99   127   126    1
   100    69    70    1
   101   118   117   ar
   102    71    70    1
   103    71    72    2
   104   123   122    2
   105   126   122   am
   106    96    95    2
   107   117   119   ar
   108   117   116    1
   109   122   121    1
   110   116   115    1
   111   103   101    1
   112   110   108    1
   113    95    94    1
   114    95    97   am
   115   111   112    1
   116   109   108    1
   117   124   121    1
   118   124   125    1
   119    94    93    1
   120   115   112    1
   121   121   120    1
   122   114   113    2
   123   108   105    1
   124    97    98    1
   125    98   101    1
   126    98    99    1
   127   112   113    1
   128   101   102    1
   129    99   100    2
   130   105   104    1
   131   105   106    1
   132   106   107    2
