@<TRIPOS>MOLECULE
tmp/1tduA01.pdb
 211 206 0 0 0
SMALL
GASTEIGER

@<TRIPOS>ATOM
      1  N          7.9250   25.1640   26.5360 N.3    22  THR22      -0.1218
      2  CA         6.9380   24.2340   27.1240 C.3    22  THR22       0.1862
      3  C          5.6490   24.9230   27.6040 C.2    22  THR22       0.2287
      4  O          4.7830   24.3020   28.2260 O.2    22  THR22      -0.2866
      5  CB         7.5100   23.4540   28.3680 C.3    22  THR22       0.1770
      6  OG1        7.3710   24.3150   29.5070 O.3    22  THR22      -0.2211
      7  CG2        9.0030   23.0930   28.2500 C.3    22  THR22       0.0375
      8  N         16.3420   16.1540   49.5780 N.3    48  LYS48      -0.1231
      9  CA        15.3160   15.2320   49.0960 C.3    48  LYS48       0.1693
     10  C         16.0040   13.9340   48.6510 C.2    48  LYS48       0.2592
     11  O         17.2000   13.9500   48.4040 O.2    48  LYS48      -0.2718
     12  CB        14.5420   15.7690   47.8970 C.3    48  LYS48       0.0285
     13  CG        15.3030   15.8570   46.5840 C.3    48  LYS48       0.0035
     14  CD        14.4100   16.2690   45.4340 C.3    48  LYS48       0.0206
     15  CE        15.2260   16.0660   44.1760 C.3    48  LYS48       0.1093
     16  NZ        14.6510   16.8260   43.0900 N.3    48  LYS48      -0.1314
     17  N         15.3670   12.7730   48.5230 N.am   49  ARG49      -0.1966
     18  CA        16.0150   11.5480   48.0480 C.3    49  ARG49       0.1729
     19  C         16.2280   11.4250   46.5400 C.2    49  ARG49       0.2616
     20  O         15.2600   11.4110   45.7650 O.2    49  ARG49      -0.2715
     21  CB        15.2070   10.3390   48.5300 C.3    49  ARG49       0.0348
     22  CG        15.7120    9.0090   47.9840 C.3    49  ARG49       0.0492
     23  CD        14.9900    7.8380   48.5960 C.3    49  ARG49       0.2205
     24  NE        15.9010    7.1900   49.5180 N.pl3  49  ARG49      -0.0865
     25  CZ        15.7310    7.2460   50.8340 C.cat  49  ARG49       0.5346
     26  NH1       14.6980    7.8850   51.3890 N.pl3  49  ARG49       0.1354
     27  NH2       16.6330    6.6440   51.5970 N.pl3  49  ARG49       0.1354
     28  N         17.4770   11.3080   46.0990 N.am   50  CYS50      -0.1954
     29  CA        17.7250   11.1430   44.6670 C.3    50  CYS50       0.1843
     30  C         17.9590    9.7230   44.1910 C.2    50  CYS50       0.2625
     31  O         18.5620    8.8810   44.8610 O.2    50  CYS50      -0.2714
     32  CB        18.9210   11.9520   44.1990 C.3    50  CYS50       0.0997
     33  SG        18.6230   13.7190   44.4120 S.3    50  CYS50      -0.0797
     34  N         17.5120    9.3790   42.9960 N.am   51  HIS51      -0.1973
     35  CA        17.6850    8.0270   42.4950 C.3    51  HIS51       0.1656
     36  C         19.0110    7.6830   41.7960 C.2    51  HIS51       0.2291
     37  O         19.0630    7.6100   40.5690 O.2    51  HIS51      -0.2864
     38  CB        16.4870    7.7660   41.5900 C.3    51  HIS51       0.0771
     39  CG        16.2510    6.3160   41.1740 C.ar   51  HIS51       0.0820
     40  ND1       16.4340    5.1590   41.8290 N.ar   51  HIS51      -0.2267
     41  CD2       15.7340    5.9910   39.9380 C.ar   51  HIS51       0.1154
     42  CE1       16.0480    4.1800   41.0500 C.ar   51  HIS51       0.1986
     43  NE2       15.6320    4.6870   39.9210 N.ar   51  HIS51      -0.2212
     44  N         19.5430    5.6710   38.0060 N.3    54  SER54      -0.1217
     45  CA        19.3490    6.3600   36.7350 C.3    54  SER54       0.1889
     46  C         20.5140    7.2650   36.3810 C.2    54  SER54       0.2288
     47  O         20.8890    7.3840   35.2140 O.2    54  SER54      -0.2866
     48  CB        18.0970    7.2300   36.7490 C.3    54  SER54       0.2089
     49  OG        16.9990    6.4970   37.2600 O.3    54  SER54      -0.2183
     50  N         22.6550    6.3570   33.1350 N.3    58  GLU58      -0.1245
     51  CA        22.7050    7.3440   32.0600 C.3    58  GLU58       0.1567
     52  C         24.1520    7.7130   31.7050 C.2    58  GLU58       0.2260
     53  O         24.4970    7.7690   30.5270 O.2    58  GLU58      -0.2867
     54  CB        21.9460    8.5760   32.4820 C.3    58  GLU58       0.0388
     55  CG        21.7660    9.5690   31.3400 C.3    58  GLU58       0.1160
     56  CD        21.3950   10.9600   31.8310 C.2    58  GLU58       0.3649
     57  OE1       21.9120   11.3950   32.8640 O.co2  58  GLU58      -0.2457
     58  OE2       20.5950   11.6140   31.1710 O.co2  58  GLU58      -0.2457
     59  N         13.6600    5.1050   32.8760 N.3    78  THR78      -0.1203
     60  CA        12.6510    5.7460   32.0520 C.3    78  THR78       0.1994
     61  C         12.7670    7.2550   31.8850 C.2    78  THR78       0.2618
     62  O         11.9390    7.8560   31.2010 O.2    78  THR78      -0.2717
     63  CB        11.2520    5.4680   32.6040 C.3    78  THR78       0.1784
     64  OG1       11.2850    5.8270   33.9870 O.3    78  THR78      -0.2211
     65  CG2       10.8270    4.0310   32.3880 C.3    78  THR78       0.0376
     66  N         13.7650    7.9070   32.4900 N.am   79  ILE79      -0.1965
     67  CA        13.9810    9.3540   32.4010 C.3    79  ILE79       0.1727
     68  C         14.0770    9.9410   30.9930 C.2    79  ILE79       0.2616
     69  O         13.8050   11.1090   30.7950 O.2    79  ILE79      -0.2715
     70  CB        15.2660    9.7670   33.1940 C.3    79  ILE79       0.0290
     71  CG1       16.5380    9.1290   32.6210 C.3    79  ILE79       0.0022
     72  CG2       15.0420    9.4000   34.6540 C.3    79  ILE79       0.0023
     73  CD1       17.8600    9.6540   33.2230 C.3    79  ILE79       0.0001
     74  N         14.4350    9.1920   29.9540 N.am   80  TRP80      -0.1974
     75  CA        14.4550    9.7310   28.5870 C.3    80  TRP80       0.1640
     76  C         13.2900    9.3770   27.6660 C.2    80  TRP80       0.2290
     77  O         13.3030    9.7270   26.4870 O.2    80  TRP80      -0.2864
     78  CB        15.7430    9.3020   27.8830 C.3    80  TRP80       0.0576
     79  CG        16.8940   10.1940   28.3040 C.ar   80  TRP80       0.0006
     80  CD1       17.8940    9.7250   29.1040 C.ar   80  TRP80       0.0946
     81  CD2       17.0420   11.5140   27.9630 C.ar   80  TRP80       0.0152
     82  NE1       18.6880   10.7460   29.2740 N.ar   80  TRP80      -0.2442
     83  CE2       18.2290   11.8330   28.6220 C.ar   80  TRP80       0.0810
     84  CE3       16.3590   12.4750   27.2070 C.ar   80  TRP80       0.0012
     85  CZ2       18.7500   13.1250   28.5350 C.ar   80  TRP80       0.0191
     86  CZ3       16.8850   13.7680   27.1200 C.ar   80  TRP80       0.0001
     87  CH2       18.0750   14.0870   27.7820 C.ar   80  TRP80       0.0015
     88  N         11.0590   11.9640   25.1210 N.3    83  TRP83      -0.1241
     89  CA        11.7470   12.6080   24.0090 C.3    83  TRP83       0.1605
     90  C         12.1300   11.6640   22.8850 C.2    83  TRP83       0.2264
     91  O         12.4610   12.0670   21.7740 O.2    83  TRP83      -0.2867
     92  CB        12.9690   13.3220   24.5860 C.3    83  TRP83       0.0550
     93  CG        12.4990   14.3820   25.5620 C.ar   83  TRP83       0.0003
     94  CD1       12.0900   15.6150   25.1240 C.ar   83  TRP83       0.0946
     95  CD2       12.3200   14.2090   26.9060 C.ar   83  TRP83       0.0152
     96  NE1       11.6260   16.2130   26.1930 N.ar   83  TRP83      -0.2442
     97  CE2       11.7390   15.4240   27.2630 C.ar   83  TRP83       0.0810
     98  CE3       12.5380   13.2280   27.8690 C.ar   83  TRP83       0.0012
     99  CZ2       11.3620   15.6810   28.5790 C.ar   83  TRP83       0.0191
    100  CZ3       12.1670   13.4690   29.1930 C.ar   83  TRP83       0.0001
    101  CH2       11.5820   14.6890   29.5460 C.ar   83  TRP83       0.0015
    102  N         16.1880   16.8490   21.5980 N.3   143  LEU143     -0.1245
    103  CA        16.3370   18.0080   22.4660 C.3   143  LEU143      0.1561
    104  C         17.7710   18.5680   22.3170 C.2   143  LEU143      0.2260
    105  O         18.7430   17.8140   22.2100 O.2   143  LEU143     -0.2867
    106  CB        16.0690   17.5460   23.8890 C.3   143  LEU143      0.0270
    107  CG        15.8790   18.5590   25.0080 C.3   143  LEU143      0.0019
    108  CD1       14.5610   19.3060   24.8470 C.3   143  LEU143      0.0001
    109  CD2       15.8480   17.8200   26.3260 C.3   143  LEU143      0.0001
    110  N         23.6460   20.2740   29.0820 N.3   147  HIS147     -0.1241
    111  CA        25.0170   20.2690   29.6040 C.3   147  HIS147      0.1621
    112  C         25.8710   20.1090   28.3590 C.2   147  HIS147      0.2264
    113  O         26.1320   19.0490   27.7990 O.2   147  HIS147     -0.2867
    114  CB        25.2350   19.1230   30.6290 C.3   147  HIS147      0.0745
    115  CG        24.8040   17.6790   30.3700 C.ar  147  HIS147      0.0817
    116  ND1       25.5540   16.6190   30.0670 N.ar  147  HIS147     -0.2268
    117  CD2       23.5100   17.2240   30.4760 C.ar  147  HIS147      0.1154
    118  CE1       24.7930   15.5640   29.9900 C.ar  147  HIS147      0.1986
    119  NE2       23.5700   15.9450   30.2400 N.ar  147  HIS147     -0.2212
    120  N         16.9900   23.2360   34.6860 N.3   169  ASP169     -0.1239
    121  CA        15.8300   23.0760   35.5500 C.3   169  ASP169      0.1674
    122  C         16.4180   22.7840   36.9230 C.2   169  ASP169      0.2266
    123  O         16.7930   21.6570   37.2420 O.2   169  ASP169     -0.2867
    124  CB        14.9960   21.9110   35.0590 C.3   169  ASP169      0.1410
    125  CG        13.7680   21.5380   35.8720 C.2   169  ASP169      0.3668
    126  OD1       13.7150   21.7150   37.0900 O.co2 169  ASP169     -0.2456
    127  OD2       12.8340   21.0440   35.2500 O.co2 169  ASP169     -0.2456
    128  N         14.4540   19.7810   39.1470 N.3   172  LEU172     -0.1231
    129  CA        14.4470   18.4100   38.6390 C.3   172  LEU172      0.1693
    130  C         15.7470   17.9350   37.9800 C.2   172  LEU172      0.2592
    131  O         16.2720   16.8680   38.2600 O.2   172  LEU172     -0.2718
    132  CB        13.2640   18.3030   37.6640 C.3   172  LEU172      0.0284
    133  CG        12.4420   17.0160   37.5180 C.3   172  LEU172      0.0019
    134  CD1       11.8380   16.5960   38.8550 C.3   172  LEU172      0.0001
    135  CD2       11.2800   17.2720   36.5850 C.3   172  LEU172      0.0001
    136  N         16.3640   18.7330   37.1280 N.am  173  GLY173     -0.1957
    137  CA        17.5530   18.2920   36.4110 C.3   173  GLY173      0.1869
    138  C         18.8770   18.5110   37.1330 C.2   173  GLY173      0.2309
    139  O         19.7320   17.6190   37.1870 O.2   173  GLY173     -0.2863
    140  N         20.1130   18.3460   40.3830 N.3   175  PRO175     -0.2102
    141  CA        20.6010   17.2570   41.2410 C.3   175  PRO175      0.1504
    142  C         21.2260   16.0820   40.4630 C.2   175  PRO175      0.2576
    143  O         22.2660   15.5140   40.8120 O.2   175  PRO175     -0.2718
    144  CB        19.3730   16.8730   42.0420 C.3   175  PRO175      0.0282
    145  CG        18.6100   18.1670   42.1470 C.3   175  PRO175      0.0208
    146  CD        18.7180   18.6420   40.7110 C.3   175  PRO175      0.0893
    147  N         20.6080   15.7870   39.3190 N.am  176  PHE176     -0.1963
    148  CA        21.0390   14.7560   38.3890 C.3   176  PHE176      0.1771
    149  C         22.3360   15.1430   37.6880 C.2   176  PHE176      0.2619
    150  O         23.3180   14.4020   37.6890 O.2   176  PHE176     -0.2715
    151  CB        19.9640   14.5400   37.3300 C.3   176  PHE176      0.0574
    152  CG        19.2460   13.2170   37.4180 C.ar  176  PHE176     -0.0200
    153  CD1       18.3100   13.0010   38.4390 C.ar  176  PHE176     -0.0042
    154  CD2       19.5520   12.2200   36.4800 C.ar  176  PHE176     -0.0042
    155  CE1       17.6700   11.7600   38.5220 C.ar  176  PHE176     -0.0003
    156  CE2       18.9070   10.9870   36.5740 C.ar  176  PHE176     -0.0003
    157  CZ        17.9710   10.7620   37.5920 C.ar  176  PHE176     -0.0000
    158  N         22.3700   16.3410   37.1030 N.am  177  ASN177     -0.1972
    159  CA        23.5530   16.8260   36.4220 C.3   177  ASN177      0.1688
    160  C         24.7920   16.9710   37.2890 C.2   177  ASN177      0.2292
    161  O         25.8720   16.6050   36.8200 O.2   177  ASN177     -0.2864
    162  CB        23.2860   18.1700   35.7640 C.3   177  ASN177      0.1181
    163  CG        22.2830   18.0520   34.6360 C.2   177  ASN177      0.2629
    164  OD1       21.3650   18.8420   34.4940 O.2   177  ASN177     -0.2716
    165  ND2       22.3110   17.0940   33.7400 N.am  177  ASN177     -0.0877
    166  N         10.6540   26.1130   37.4440 N.3   209  TYR209     -0.1241
    167  CA         9.3420   26.1380   36.7990 C.3   209  TYR209      0.1605
    168  C          8.2190   26.5770   37.7540 C.2   209  TYR209      0.2264
    169  O          8.2320   26.2110   38.9360 O.2   209  TYR209     -0.2867
    170  CB         9.0390   24.7380   36.2460 C.3   209  TYR209      0.0534
    171  CG         9.7570   24.4840   34.9300 C.ar  209  TYR209     -0.0201
    172  CD1        9.2120   25.0070   33.7570 C.ar  209  TYR209     -0.0009
    173  CD2       10.9660   23.7820   34.8900 C.ar  209  TYR209     -0.0009
    174  CE1        9.8660   24.8490   32.5360 C.ar  209  TYR209      0.0417
    175  CE2       11.6290   23.6220   33.6680 C.ar  209  TYR209      0.0417
    176  CZ        11.0760   24.1640   32.5030 C.ar  209  TYR209      0.1957
    177  OH        11.7600   24.0990   31.3080 O.3   209  TYR209     -0.2866
    178  N         10.5900   14.2540   47.0550 N.3   258  ILE258     -0.1231
    179  CA         9.5530   15.2360   46.7490 C.3   258  ILE258      0.1692
    180  C          9.1750   15.0810   45.2810 C.2   258  ILE258      0.2592
    181  O         10.0250   15.2230   44.4060 O.2   258  ILE258     -0.2718
    182  CB        10.0660   16.6810   47.0020 C.3   258  ILE258      0.0266
    183  CG1       10.6670   16.8470   48.4000 C.3   258  ILE258      0.0019
    184  CG2        8.8820   17.6290   46.8770 C.3   258  ILE258      0.0020
    185  CD1       11.2440   18.2390   48.7270 C.3   258  ILE258      0.0001
    186  N          7.9550   14.7110   44.9270 N.am  259  LYS259     -0.1966
    187  CA         7.6000   14.6090   43.5080 C.3   259  LYS259      0.1728
    188  C          7.1910   15.9200   42.8570 C.2   259  LYS259      0.2616
    189  O          6.5730   16.7920   43.4660 O.2   259  LYS259     -0.2715
    190  CB         6.4610   13.6170   43.2800 C.3   259  LYS259      0.0311
    191  CG         6.8900   12.1570   43.2060 C.3   259  LYS259      0.0038
    192  CD         7.5310   11.8510   41.8490 C.3   259  LYS259      0.0206
    193  CE         8.0440   10.4110   41.8330 C.3   259  LYS259      0.1093
    194  NZ         8.6670   10.0580   40.5620 N.3   259  LYS259     -0.1314
    195  N          7.5620   16.0510   41.5950 N.am  260  ALA260     -0.1977
    196  CA         7.2420   17.2340   40.8090 C.3   260  ALA260      0.1597
    197  C          7.1020   16.8790   39.3280 C.2   260  ALA260      0.2287
    198  O          7.8230   16.0040   38.8390 O.2   260  ALA260     -0.2864
    199  CB         8.3410   18.2900   40.9340 C.3   260  ALA260      0.0319
    200  N          7.3610   16.9630   35.1510 N.3   262  VAL262     -0.1231
    201  CA         8.3680   17.3280   34.1580 C.3   262  VAL262      0.1692
    202  C          7.7360   18.2400   33.1030 C.2   262  VAL262      0.2591
    203  O          6.6260   17.9720   32.6480 O.2   262  VAL262     -0.2718
    204  CB         8.9390   16.0790   33.4150 C.3   262  VAL262      0.0266
    205  CG1       10.2350   16.4710   32.7090 C.3   262  VAL262      0.0020
    206  CG2        9.1800   14.9320   34.3750 C.3   262  VAL262      0.0020
    207  N          8.3600   19.3510   32.7270 N.am  263  ALA263     -0.1980
    208  CA         7.8890   20.1530   31.6020 C.3   263  ALA263      0.1597
    209  C          8.1740   19.5010   30.2430 C.2   263  ALA263      0.2287
    210  O          9.2520   18.9470   30.0360 O.2   263  ALA263     -0.2864
    211  CB         8.5530   21.5080   31.6230 C.3   263  ALA263      0.0319
@<TRIPOS>BOND
     1   102   103    1
     2    91    90    2
     3   105   104    2
     4   104   103    1
     5   103   106    1
     6    90    89    1
     7   106   107    1
     8    89    92    1
     9    89    88    1
    10    92    93    1
    11   108   107    1
    12   107   109    1
    13    94    93   ar
    14    94    96   ar
    15    93    95   ar
    16    96    97   ar
    17    77    76    2
    18     1     2    1
    19    95    97   ar
    20    95    98   ar
    21    86    84   ar
    22    86    87   ar
    23     2     3    1
    24     2     5    1
    25    84    81   ar
    26    97    99   ar
    27     3     4    2
    28    76    75    1
    29    87    85   ar
    30   113   112    2
    31    98   100   ar
    32    78    79    1
    33    78    75    1
    34    81    79   ar
    35    81    83   ar
    36     7     5    1
    37    79    80   ar
    38   112   111    1
    39     5     6    1
    40    85    83   ar
    41    99   101   ar
    42    75    74    1
    43    83    82   ar
    44   110   111    1
    45    80    82   ar
    46   100   101   ar
    47   111   114    1
    48    74    68   am
    49   118   116   ar
    50   118   119   ar
    51   210   209    2
    52   116   115   ar
    53   119   117   ar
    54   209   208    1
    55   115   117   ar
    56   115   114    1
    57    53    52    2
    58    69    68    2
    59    68    67    1
    60    58    56   ar
    61    62    61    2
    62   177   176    1
    63    55    56    1
    64    55    54    1
    65   208   211    1
    66   208   207    1
    67    52    51    1
    68    56    57   ar
    69    61    60    1
    70    61    66   am
    71    60    63    1
    72    60    59    1
    73    51    54    1
    74    51    50    1
    75    65    63    1
    76    67    66    1
    77    67    70    1
    78   176   174   ar
    79   176   175   ar
    80   174   172   ar
    81    63    64    1
    82    71    70    1
    83    71    73    1
    84   203   202    2
    85   205   204    1
    86   207   202   am
    87   202   201    1
    88    70    72    1
    89   204   201    1
    90   204   206    1
    91   175   173   ar
    92   165   163   am
    93   172   171   ar
    94   201   200    1
    95   164   163    2
    96   163   162    1
    97   120   121    1
    98   173   171   ar
    99   171   170    1
   100   124   121    1
   101   124   125    1
   102    47    46    2
   103   127   125   ar
   104   121   122    1
   105   162   159    1
   106   125   126   ar
   107   170   167    1
   108    46    45    1
   109   137   136    1
   110   137   138    1
   111   159   158    1
   112   159   160    1
   113   154   156   ar
   114   154   152   ar
   115   156   157   ar
   116   135   133    1
   117    45    48    1
   118    45    44    1
   119    48    49    1
   120   167   166    1
   121   167   168    1
   122   161   160    2
   123   122   123    2
   124   158   149   am
   125   136   130   am
   126   138   139    2
   127   151   152    1
   128   151   148    1
   129   152   153   ar
   130   133   132    1
   131   133   134    1
   132   157   155   ar
   133   132   129    1
   134   149   150    2
   135   149   148    1
   136   168   169    2
   137   130   131    2
   138   130   129    1
   139   148   147    1
   140   153   155   ar
   141   129   128    1
   142   198   197    2
   143   147   142   am
   144   197   196    1
   145    43    41   ar
   146    43    42   ar
   147    41    39   ar
   148   140   146    1
   149   140   141    1
   150   142   143    2
   151   142   141    1
   152   194   193    1
   153    37    36    2
   154   146   145    1
   155   196   199    1
   156   196   195    1
   157    42    40   ar
   158    39    38    1
   159    39    40   ar
   160   141   144    1
   161    38    35    1
   162   195   188   am
   163    36    35    1
   164   193   192    1
   165   192   191    1
   166   144   145    1
   167    35    34    1
   168   188   189    2
   169   188   187    1
   170    34    30   am
   171    16    15    1
   172   191   190    1
   173   190   187    1
   174   187   186    1
   175    15    14    1
   176    30    29    1
   177    30    31    2
   178    32    33    1
   179    32    29    1
   180   181   180    2
   181    29    28    1
   182   186   180   am
   183   180   179    1
   184    14    13    1
   185    20    19    2
   186    28    19   am
   187    19    18    1
   188    13    12    1
   189   179   182    1
   190   179   178    1
   191   184   182    1
   192   182   183    1
   193    12     9    1
   194    22    21    1
   195    22    23    1
   196    18    17    1
   197    18    21    1
   198   183   185    1
   199    11    10    2
   200    17    10   am
   201    23    24    1
   202    10     9    1
   203     9     8    1
   204    24    25    2
   205    25    26    1
   206    25    27    1
