@<TRIPOS>MOLECULE
tmp/1tduA00.pdb
 161 157 0 0 0
SMALL
GASTEIGER

@<TRIPOS>ATOM
      1  N          9.4900   27.5440   25.9060 N.3    21  ARG21      -0.1231
      2  CA         8.9060   26.6700   24.8690 C.3    21  ARG21       0.1694
      3  C          7.8320   25.6590   25.2980 C.2    21  ARG21       0.2592
      4  O          6.8850   25.4040   24.5550 O.2    21  ARG21      -0.2718
      5  CB         9.9940   25.8780   24.1400 C.3    21  ARG21       0.0321
      6  CG        10.9340   25.0620   24.9930 C.3    21  ARG21       0.0489
      7  CD        11.7420   24.1240   24.1080 C.3    21  ARG21       0.2205
      8  NE        10.9770   22.9290   23.8280 N.pl3  21  ARG21      -0.0865
      9  CZ        10.7910   21.9520   24.7260 C.cat  21  ARG21       0.5346
     10  NH1       11.3720   21.9610   25.9280 N.pl3  21  ARG21       0.1354
     11  NH2       10.0100   20.9210   24.3890 N.pl3  21  ARG21       0.1354
     12  N          7.9250   25.1640   26.5360 N.am   22  THR22      -0.1953
     13  CA         6.9380   24.2340   27.1240 C.3    22  THR22       0.1897
     14  C          5.6490   24.9230   27.6040 C.2    22  THR22       0.2313
     15  O          4.7830   24.3020   28.2260 O.2    22  THR22      -0.2863
     16  CB         7.5100   23.4540   28.3680 C.3    22  THR22       0.1794
     17  OG1        7.3710   24.3150   29.5070 O.3    22  THR22      -0.2208
     18  CG2        9.0030   23.0930   28.2500 C.3    22  THR22       0.0378
     19  N         14.4350    9.1920   29.9540 N.3    80  TRP80      -0.1241
     20  CA        14.4550    9.7310   28.5870 C.3    80  TRP80       0.1605
     21  C         13.2900    9.3770   27.6660 C.2    80  TRP80       0.2264
     22  O         13.3030    9.7270   26.4870 O.2    80  TRP80      -0.2867
     23  CB        15.7430    9.3020   27.8830 C.3    80  TRP80       0.0550
     24  CG        16.8940   10.1940   28.3040 C.ar   80  TRP80       0.0003
     25  CD1       17.8940    9.7250   29.1040 C.ar   80  TRP80       0.0946
     26  CD2       17.0420   11.5140   27.9630 C.ar   80  TRP80       0.0152
     27  NE1       18.6880   10.7460   29.2740 N.ar   80  TRP80      -0.2442
     28  CE2       18.2290   11.8330   28.6220 C.ar   80  TRP80       0.0810
     29  CE3       16.3590   12.4750   27.2070 C.ar   80  TRP80       0.0012
     30  CZ2       18.7500   13.1250   28.5350 C.ar   80  TRP80       0.0191
     31  CZ3       16.8850   13.7680   27.1200 C.ar   80  TRP80       0.0001
     32  CH2       18.0750   14.0870   27.7820 C.ar   80  TRP80       0.0015
     33  N         11.0590   11.9640   25.1210 N.3    83  TRP83      -0.1241
     34  CA        11.7470   12.6080   24.0090 C.3    83  TRP83       0.1605
     35  C         12.1300   11.6640   22.8850 C.2    83  TRP83       0.2264
     36  O         12.4610   12.0670   21.7740 O.2    83  TRP83      -0.2867
     37  CB        12.9690   13.3220   24.5860 C.3    83  TRP83       0.0550
     38  CG        12.4990   14.3820   25.5620 C.ar   83  TRP83       0.0003
     39  CD1       12.0900   15.6150   25.1240 C.ar   83  TRP83       0.0946
     40  CD2       12.3200   14.2090   26.9060 C.ar   83  TRP83       0.0152
     41  NE1       11.6260   16.2130   26.1930 N.ar   83  TRP83      -0.2442
     42  CE2       11.7390   15.4240   27.2630 C.ar   83  TRP83       0.0810
     43  CE3       12.5380   13.2280   27.8690 C.ar   83  TRP83       0.0012
     44  CZ2       11.3620   15.6810   28.5790 C.ar   83  TRP83       0.0191
     45  CZ3       12.1670   13.4690   29.1930 C.ar   83  TRP83       0.0001
     46  CH2       11.5820   14.6890   29.5460 C.ar   83  TRP83       0.0015
     47  N         24.0750   13.5680   23.3740 N.3    94  TYR94      -0.1241
     48  CA        25.3560   13.4110   24.0990 C.3    94  TYR94       0.1605
     49  C         26.2820   12.2430   23.7680 C.2    94  TYR94       0.2264
     50  O         27.4020   12.4630   23.3160 O.2    94  TYR94      -0.2867
     51  CB        25.1090   13.3550   25.6070 C.3    94  TYR94       0.0534
     52  CG        24.2210   14.4980   26.0860 C.ar   94  TYR94      -0.0201
     53  CD1       24.7480   15.7820   26.2470 C.ar   94  TYR94      -0.0009
     54  CD2       22.8720   14.2390   26.3650 C.ar   94  TYR94      -0.0009
     55  CE1       23.9190   16.8070   26.6950 C.ar   94  TYR94       0.0417
     56  CE2       22.0410   15.2600   26.8140 C.ar   94  TYR94       0.0417
     57  CZ        22.5750   16.5410   26.9810 C.ar   94  TYR94       0.1957
     58  OH        21.7850   17.5480   27.4860 O.3    94  TYR94      -0.2866
     59  N         16.1880   16.8490   21.5980 N.3   143  LEU143     -0.1245
     60  CA        16.3370   18.0080   22.4660 C.3   143  LEU143      0.1561
     61  C         17.7710   18.5680   22.3170 C.2   143  LEU143      0.2260
     62  O         18.7430   17.8140   22.2100 O.2   143  LEU143     -0.2867
     63  CB        16.0690   17.5460   23.8890 C.3   143  LEU143      0.0270
     64  CG        15.8790   18.5590   25.0080 C.3   143  LEU143      0.0019
     65  CD1       14.5610   19.3060   24.8470 C.3   143  LEU143      0.0001
     66  CD2       15.8480   17.8200   26.3260 C.3   143  LEU143      0.0001
     67  N         21.7000   20.2810   27.0190 N.3   146  CYS146     -0.1221
     68  CA        21.6650   21.2630   28.0970 C.3   146  CYS146      0.1808
     69  C         23.0080   21.4040   28.7710 C.2   146  CYS146      0.2601
     70  O         23.4870   22.5070   29.0090 O.2   146  CYS146     -0.2717
     71  CB        20.6270   20.8980   29.1500 C.3   146  CYS146      0.0970
     72  SG        18.9460   21.1790   28.5290 S.3   146  CYS146     -0.0800
     73  N         23.6460   20.2740   29.0820 N.am  147  HIS147     -0.1975
     74  CA        25.0170   20.2690   29.6040 C.3   147  HIS147      0.1656
     75  C         25.8710   20.1090   28.3590 C.2   147  HIS147      0.2291
     76  O         26.1320   19.0490   27.7990 O.2   147  HIS147     -0.2864
     77  CB        25.2350   19.1230   30.6290 C.3   147  HIS147      0.0771
     78  CG        24.8040   17.6790   30.3700 C.ar  147  HIS147      0.0820
     79  ND1       25.5540   16.6190   30.0670 N.ar  147  HIS147     -0.2267
     80  CD2       23.5100   17.2240   30.4760 C.ar  147  HIS147      0.1154
     81  CE1       24.7930   15.5640   29.9900 C.ar  147  HIS147      0.1986
     82  NE2       23.5700   15.9450   30.2400 N.ar  147  HIS147     -0.2212
     83  N         26.4390   24.6620   31.5610 N.3   165  GLN165     -0.1231
     84  CA        25.0900   24.1980   31.3030 C.3   165  GLN165      0.1698
     85  C         24.2600   25.3600   30.7770 C.2   165  GLN165      0.2592
     86  O         24.0300   26.3380   31.4820 O.2   165  GLN165     -0.2718
     87  CB        24.5170   23.6420   32.6010 C.3   165  GLN165      0.0381
     88  CG        23.2860   22.8030   32.2970 C.3   165  GLN165      0.0905
     89  CD        22.8340   21.8770   33.4090 C.2   165  GLN165      0.2608
     90  OE1       23.6120   21.3740   34.1950 O.2   165  GLN165     -0.2717
     91  NE2       21.5760   21.5360   33.5450 N.am  165  GLN165     -0.0878
     92  N         23.7920   25.3190   29.5360 N.am  166  ARG166     -0.1966
     93  CA        23.0830   26.4660   28.9560 C.3   166  ARG166      0.1729
     94  C         21.6560   26.7250   29.4560 C.2   166  ARG166      0.2617
     95  O         21.1590   27.8380   29.5830 O.2   166  ARG166     -0.2715
     96  CB        23.0640   26.3180   27.4300 C.3   166  ARG166      0.0348
     97  CG        22.4490   25.0600   26.9020 C.3   166  ARG166      0.0492
     98  CD        21.4370   25.3910   25.8380 C.3   166  ARG166      0.2205
     99  NE        20.6970   24.1920   25.5010 N.pl3 166  ARG166     -0.0865
    100  CZ        19.3680   24.1260   25.5530 C.cat 166  ARG166      0.5346
    101  NH1       18.6270   25.1820   25.8120 N.pl3 166  ARG166      0.1354
    102  NH2       18.7650   22.9850   25.2620 N.pl3 166  ARG166      0.1354
    103  N         21.0120   25.6310   29.8180 N.am  167  SER167     -0.1936
    104  CA        19.6630   25.6410   30.3640 C.3   167  SER167      0.2055
    105  C         19.5740   24.6650   31.5270 C.2   167  SER167      0.2643
    106  O         20.0390   23.5220   31.4900 O.2   167  SER167     -0.2714
    107  CB        18.6360   25.2310   29.3220 C.3   167  SER167      0.2130
    108  OG        17.3300   25.2390   29.8920 O.3   167  SER167     -0.2179
    109  N         18.9930   25.1380   32.6190 N.am  168  CYS168     -0.1953
    110  CA        18.9500   24.3330   33.8260 C.3   168  CYS168      0.1843
    111  C         17.6620   24.3670   34.6120 C.2   168  CYS168      0.2625
    112  O         17.2290   25.4180   35.1030 O.2   168  CYS168     -0.2714
    113  CB        20.0580   24.7530   34.7760 C.3   168  CYS168      0.0997
    114  SG        20.0970   23.7800   36.3030 S.3   168  CYS168     -0.0797
    115  N         16.9900   23.2360   34.6860 N.am  169  ASP169     -0.1971
    116  CA        15.8300   23.0760   35.5500 C.3   169  ASP169      0.1709
    117  C         16.4180   22.7840   36.9230 C.2   169  ASP169      0.2293
    118  O         16.7930   21.6570   37.2420 O.2   169  ASP169     -0.2864
    119  CB        14.9960   21.9110   35.0590 C.3   169  ASP169      0.1436
    120  CG        13.7680   21.5380   35.8720 C.2   169  ASP169      0.3671
    121  OD1       13.7150   21.7150   37.0900 O.co2 169  ASP169     -0.2456
    122  OD2       12.8340   21.0440   35.2500 O.co2 169  ASP169     -0.2456
    123  N         16.3640   18.7330   37.1280 N.3   173  GLY173     -0.1225
    124  CA        17.5530   18.2920   36.4110 C.3   173  GLY173      0.1811
    125  C         18.8770   18.5110   37.1330 C.2   173  GLY173      0.2280
    126  O         19.7320   17.6190   37.1870 O.2   173  GLY173     -0.2866
    127  N         22.3700   16.3410   37.1030 N.3   177  ASN177     -0.1240
    128  CA        23.5530   16.8260   36.4220 C.3   177  ASN177      0.1653
    129  C         24.7920   16.9710   37.2890 C.2   177  ASN177      0.2266
    130  O         25.8720   16.6050   36.8200 O.2   177  ASN177     -0.2867
    131  CB        23.2860   18.1700   35.7640 C.3   177  ASN177      0.1155
    132  CG        22.2830   18.0520   34.6360 C.2   177  ASN177      0.2627
    133  OD1       21.3650   18.8420   34.4940 O.2   177  ASN177     -0.2716
    134  ND2       22.3110   17.0940   33.7400 N.am  177  ASN177     -0.0877
    135  N         16.8860   28.1530   35.9750 N.3   207  HIS207     -0.1241
    136  CA        15.4660   28.3560   36.2930 C.3   207  HIS207      0.1621
    137  C         14.6800   27.3670   37.1310 C.2   207  HIS207      0.2264
    138  O         14.9380   26.1670   37.1770 O.2   207  HIS207     -0.2867
    139  CB        14.6700   28.5460   34.9920 C.3   207  HIS207      0.0745
    140  CG        14.8850   27.4640   33.9470 C.ar  207  HIS207      0.0817
    141  ND1       15.7970   27.4220   32.9820 N.ar  207  HIS207     -0.2268
    142  CD2       14.1250   26.3230   33.8370 C.ar  207  HIS207      0.1154
    143  CE1       15.6250   26.3270   32.2960 C.ar  207  HIS207      0.1986
    144  NE2       14.6150   25.6760   32.8150 N.ar  207  HIS207     -0.2212
    145  N         10.6540   26.1130   37.4440 N.3   209  TYR209     -0.1241
    146  CA         9.3420   26.1380   36.7990 C.3   209  TYR209      0.1605
    147  C          8.2190   26.5770   37.7540 C.2   209  TYR209      0.2264
    148  O          8.2320   26.2110   38.9360 O.2   209  TYR209     -0.2867
    149  CB         9.0390   24.7380   36.2460 C.3   209  TYR209      0.0534
    150  CG         9.7570   24.4840   34.9300 C.ar  209  TYR209     -0.0201
    151  CD1        9.2120   25.0070   33.7570 C.ar  209  TYR209     -0.0009
    152  CD2       10.9660   23.7820   34.8900 C.ar  209  TYR209     -0.0009
    153  CE1        9.8660   24.8490   32.5360 C.ar  209  TYR209      0.0417
    154  CE2       11.6290   23.6220   33.6680 C.ar  209  TYR209      0.0417
    155  CZ        11.0760   24.1640   32.5030 C.ar  209  TYR209      0.1957
    156  OH        11.7600   24.0990   31.3080 O.3   209  TYR209     -0.2866
    157  N          8.3600   19.3510   32.7270 N.3   263  ALA263     -0.1245
    158  CA         7.8890   20.1530   31.6020 C.3   263  ALA263      0.1562
    159  C          8.1740   19.5010   30.2430 C.2   263  ALA263      0.2260
    160  O          9.2520   18.9470   30.0360 O.2   263  ALA263     -0.2867
    161  CB         8.5530   21.5080   31.6230 C.3   263  ALA263      0.0290
@<TRIPOS>BOND
     1    59    60    1
     2    36    35    2
     3    62    61    2
     4    61    60    1
     5    60    63    1
     6    35    34    1
     7    50    49    2
     8    47    48    1
     9    49    48    1
    10     8     7    1
    11     8     9    2
    12    63    64    1
    13    34    37    1
    14    34    33    1
    15    48    51    1
    16     7     6    1
    17     5     2    1
    18     5     6    1
    19    11     9    1
    20     4     3    2
    21    37    38    1
    22     9    10    1
    23    65    64    1
    24     2     3    1
    25     2     1    1
    26    64    66    1
    27    39    38   ar
    28    39    41   ar
    29   102   100    1
    30     3    12   am
    31    99   100    2
    32    99    98    1
    33   100   101    1
    34    38    40   ar
    35    51    52    1
    36    98    97    1
    37    52    53   ar
    38    52    54   ar
    39    41    42   ar
    40    53    55   ar
    41    54    56   ar
    42    22    21    2
    43    12    13    1
    44    55    57   ar
    45    56    57   ar
    46    97    96    1
    47    40    42   ar
    48    40    43   ar
    49    57    58    1
    50    67    68    1
    51    31    29   ar
    52    31    32   ar
    53    13    14    1
    54    13    16    1
    55    29    26   ar
    56    42    44   ar
    57    96    93    1
    58    14    15    2
    59    21    20    1
    60    32    30   ar
    61    76    75    2
    62    43    45   ar
    63    23    24    1
    64    23    20    1
    65    26    24   ar
    66    26    28   ar
    67    68    69    1
    68    68    71    1
    69    18    16    1
    70    24    25   ar
    71    75    74    1
    72    16    17    1
    73    72    71    1
    74    30    28   ar
    75    44    46   ar
    76    20    19    1
    77    28    27   ar
    78    69    70    2
    79    69    73   am
    80    93    94    1
    81    93    92    1
    82    73    74    1
    83    25    27   ar
    84    45    46   ar
    85   107   108    1
    86   107   104    1
    87    94    95    2
    88    94   103   am
    89    92    85   am
    90    74    77    1
    91   103   104    1
    92    81    79   ar
    93    81    82   ar
    94   160   159    2
    95    79    78   ar
    96    82    80   ar
    97   159   158    1
    98   104   105    1
    99    78    80   ar
   100    78    77    1
   101    85    84    1
   102    85    86    2
   103    84    83    1
   104    84    87    1
   105   156   155    1
   106   106   105    2
   107   105   109   am
   108   158   161    1
   109   158   157    1
   110   143   144   ar
   111   143   141   ar
   112    88    87    1
   113    88    89    1
   114   155   153   ar
   115   155   154   ar
   116   153   151   ar
   117   109   110    1
   118   144   142   ar
   119   141   140   ar
   120    89    91   am
   121    89    90    2
   122   154   152   ar
   123   134   132   am
   124   151   150   ar
   125   110   111    1
   126   110   113    1
   127   142   140   ar
   128   140   139    1
   129   133   132    2
   130   111   115   am
   131   111   112    2
   132   132   131    1
   133   115   116    1
   134   113   114    1
   135   152   150   ar
   136   150   149    1
   137   139   136    1
   138   119   116    1
   139   119   120    1
   140   122   120   ar
   141   116   117    1
   142   131   128    1
   143   120   121   ar
   144   135   136    1
   145   149   146    1
   146   136   137    1
   147   124   123    1
   148   124   125    1
   149   128   127    1
   150   128   129    1
   151   146   145    1
   152   146   147    1
   153   130   129    2
   154   117   118    2
   155   137   138    2
   156   125   126    2
   157   147   148    2
