@<TRIPOS>MOLECULE
tmp/1te2A00.pdb
 90 82 0 0 0
SMALL
GASTEIGER

@<TRIPOS>ATOM
      1  N         31.3900   45.8220   -5.5670 N.3     9  ASP9       -0.1239
      2  CA        31.5200   47.1650   -5.0310 C.3     9  ASP9        0.1674
      3  C         30.6280   48.0300   -5.9010 C.2     9  ASP9        0.2266
      4  O         30.3080   47.6530   -7.0320 O.2     9  ASP9       -0.2867
      5  CB        32.9830   47.5950   -5.1450 C.3     9  ASP9        0.1410
      6  CG        33.2340   49.0200   -4.7240 C.2     9  ASP9        0.3668
      7  OD1       32.7030   49.4600   -3.7030 O.co2   9  ASP9       -0.2456
      8  OD2       34.0010   49.7720   -5.3470 O.co2   9  ASP9       -0.2456
      9  N         30.5370   52.2480   -5.9470 N.3    10  ASP10      -0.1239
     10  CA        31.1800   53.4760   -6.4210 C.3    10  ASP10       0.1674
     11  C         32.5620   53.2060   -7.0130 C.2    10  ASP10       0.2266
     12  O         33.4450   52.6990   -6.3400 O.2    10  ASP10      -0.2867
     13  CB        31.3060   54.4960   -5.2850 C.3    10  ASP10       0.1410
     14  CG        29.9730   54.9170   -4.7240 C.2    10  ASP10       0.3668
     15  OD1       29.1810   55.5620   -5.4620 O.co2  10  ASP10      -0.2456
     16  OD2       29.6440   54.6580   -3.5400 O.co2  10  ASP10      -0.2456
     17  N         32.9420   58.4620   -8.5690 N.3    17  GLU17      -0.1245
     18  CA        34.0280   59.1050   -7.8190 C.3    17  GLU17       0.1567
     19  C         34.1930   60.5770   -8.1560 C.2    17  GLU17       0.2260
     20  O         34.3230   61.3810   -7.2410 O.2    17  GLU17      -0.2867
     21  CB        35.3580   58.3680   -7.9780 C.3    17  GLU17       0.0388
     22  CG        35.4080   57.0190   -7.2710 C.3    17  GLU17       0.1160
     23  CD        35.2710   57.1220   -5.7610 C.2    17  GLU17       0.3649
     24  OE1       35.6230   58.1920   -5.1940 O.co2  17  GLU17      -0.2457
     25  OE2       34.8120   56.1280   -5.1360 O.co2  17  GLU17      -0.2457
     26  N         37.7610   55.0930   -1.5530 N.3    45  GLY45      -0.1210
     27  CA        37.0130   53.9960   -0.9680 C.3    45  GLY45       0.1956
     28  C         36.5920   54.1890    0.4750 C.2    45  GLY45       0.2611
     29  O         35.9780   53.3010    1.0590 O.2    45  GLY45      -0.2717
     30  N         36.9330   55.3310    1.0660 N.am   46  LEU46      -0.1979
     31  CA        36.5100   55.6200    2.4260 C.3    46  LEU46       0.1596
     32  C         35.0860   56.1640    2.3970 C.2    46  LEU46       0.2287
     33  O         34.6810   56.8490    1.4500 O.2    46  LEU46      -0.2864
     34  CB        37.4340   56.6260    3.1110 C.3    46  LEU46       0.0297
     35  CG        38.9030   56.2680    3.3570 C.3    46  LEU46       0.0022
     36  CD1       39.5430   57.3700    4.1580 C.3    46  LEU46       0.0001
     37  CD2       39.0670   54.9700    4.0870 C.3    46  LEU46       0.0001
     38  N         28.5610   48.1370   -0.1860 N.3   108  SER108     -0.1202
     39  CA        28.9770   49.5170   -0.4150 C.3   108  SER108      0.2020
     40  C         28.9830   50.3620    0.8600 C.2   108  SER108      0.2619
     41  O         28.2160   50.1140    1.7760 O.2   108  SER108     -0.2717
     42  CB        28.0210   50.1630   -1.4220 C.3   108  SER108      0.2103
     43  OG        28.3510   51.5160   -1.6640 O.3   108  SER108     -0.2182
     44  N         29.8230   51.3960    0.8790 N.am  109  ALA109     -0.1965
     45  CA        29.8440   52.3660    1.9730 C.3   109  ALA109      0.1728
     46  C         28.6880   53.3340    1.8450 C.2   109  ALA109      0.2616
     47  O         28.3250   53.9940    2.8130 O.2   109  ALA109     -0.2715
     48  CB        31.1290   53.1220    1.9900 C.3   109  ALA109      0.0334
     49  N         28.1040   53.4130    0.6490 N.am  110  SER110     -0.1950
     50  CA        27.0130   54.3280    0.3780 C.3   110  SER110      0.1924
     51  C         25.7120   53.8660    1.0130 C.2   110  SER110      0.2314
     52  O         25.5250   52.6790    1.2680 O.2   110  SER110     -0.2863
     53  CB        26.8360   54.5120   -1.1280 C.3   110  SER110      0.2116
     54  OG        27.9560   55.1890   -1.6510 O.3   110  SER110     -0.2180
     55  N         34.4680   49.8640    4.9830 N.3   139  LYS139     -0.1245
     56  CA        35.7150   49.3960    4.3420 C.3   139  LYS139      0.1561
     57  C         36.8510   50.3860    4.7270 C.2   139  LYS139      0.2260
     58  O         36.6270   51.5950    4.6660 O.2   139  LYS139     -0.2867
     59  CB        35.5300   49.2930    2.8310 C.3   139  LYS139      0.0271
     60  CG        34.3170   48.4290    2.3940 C.3   139  LYS139      0.0035
     61  CD        34.1920   48.3150    0.8830 C.3   139  LYS139      0.0206
     62  CE        32.7950   47.9930    0.4200 C.3   139  LYS139      0.1093
     63  NZ        32.5970   48.2330   -1.0330 N.3   139  LYS139     -0.1314
     64  N         36.1810   44.8810   -6.7320 N.3   163  GLU163     -0.1231
     65  CA        36.4900   46.1730   -6.1460 C.3   163  GLU163      0.1699
     66  C         37.3620   47.0500   -7.0490 C.2   163  GLU163      0.2592
     67  O         38.0840   46.5510   -7.8910 O.2   163  GLU163     -0.2718
     68  CB        37.2140   45.9360   -4.8180 C.3   163  GLU163      0.0402
     69  CG        36.2430   45.7090   -3.6720 C.3   163  GLU163      0.1161
     70  CD        35.6550   47.0020   -3.1610 C.2   163  GLU163      0.3649
     71  OE1       36.1130   48.0730   -3.5660 O.co2 163  GLU163     -0.2457
     72  OE2       34.7440   46.9550   -2.3340 O.co2 163  GLU163     -0.2457
     73  N         37.3020   48.3610   -6.8390 N.am  164  ASP164     -0.1960
     74  CA        38.1690   49.2930   -7.5530 C.3   164  ASP164      0.1840
     75  C         39.2280   49.9590   -6.6740 C.2   164  ASP164      0.2622
     76  O         40.0510   50.7340   -7.1830 O.2   164  ASP164     -0.2715
     77  CB        37.3380   50.3650   -8.2480 C.3   164  ASP164      0.1450
     78  CG        36.8740   51.4430   -7.3090 C.2   164  ASP164      0.3671
     79  OD1       36.3630   51.1010   -6.2030 O.co2 164  ASP164     -0.2456
     80  OD2       36.9640   52.6650   -7.6110 O.co2 164  ASP164     -0.2456
     81  N         39.2130   49.6930   -5.3710 N.am  165  SER165     -0.1950
     82  CA        40.1340   50.3820   -4.4710 C.3   165  SER165      0.1924
     83  C         40.8610   49.4310   -3.5690 C.2   165  SER165      0.2314
     84  O         40.3830   48.3290   -3.3120 O.2   165  SER165     -0.2863
     85  CB        39.4190   51.4440   -3.6400 C.3   165  SER165      0.2116
     86  OG        38.6440   50.8800   -2.5840 O.3   165  SER165     -0.2180
     87  N         38.7010   48.8750   -0.3830 N.3   168  GLY168     -0.1225
     88  CA        37.6700   47.8820   -0.6300 C.3   168  GLY168      0.1811
     89  C         38.2430   46.4720   -0.7420 C.2   168  GLY168      0.2280
     90  O         37.7100   45.5210   -0.1570 O.2   168  GLY168     -0.2866
@<TRIPOS>BOND
     1    17    18    1
     2    77    74    1
     3    77    78    1
     4    19    18    1
     5    19    20    2
     6    21    18    1
     7    21    22    1
     8    67    66    2
     9    80    78   ar
    10    74    73    1
    11    74    75    1
    12    78    79   ar
    13    22    23    1
    14    76    75    2
    15    66    73   am
    16    66    65    1
    17     4     3    2
    18    11    10    1
    19    11    12    2
    20    64    65    1
    21    75    81   am
    22    10     9    1
    23    10    13    1
    24    65    68    1
    25     3     2    1
    26    23    24   ar
    27    23    25   ar
    28     1     2    1
    29    15    14   ar
    30    81    82    1
    31     8     6   ar
    32    13    14    1
    33     5     2    1
    34     5     6    1
    35    68    69    1
    36    14    16   ar
    37     6     7   ar
    38    82    85    1
    39    82    83    1
    40    69    70    1
    41    85    86    1
    42    83    84    2
    43    71    70   ar
    44    70    72   ar
    45    43    42    1
    46    54    53    1
    47    26    27    1
    48    42    39    1
    49    53    50    1
    50    63    62    1
    51    27    28    1
    52    89    88    1
    53    89    90    2
    54    88    87    1
    55    39    38    1
    56    39    40    1
    57    50    49    1
    58    50    51    1
    59    62    61    1
    60    28    29    2
    61    28    30   am
    62    49    46   am
    63    40    44   am
    64    40    41    2
    65    44    45    1
    66    61    60    1
    67    51    52    2
    68    30    31    1
    69    33    32    2
    70    46    45    1
    71    46    47    2
    72    45    48    1
    73    60    59    1
    74    32    31    1
    75    31    34    1
    76    59    56    1
    77    34    35    1
    78    35    37    1
    79    35    36    1
    80    56    57    1
    81    56    55    1
    82    58    57    2
