@<TRIPOS>MOLECULE
tmp/1tedC00.pdb
 195 183 0 0 0
SMALL
GASTEIGER

@<TRIPOS>ATOM
      1  N        -47.1330   14.1320   -7.3630 N.3    26  VAL26      -0.1245
      2  CA       -46.4080   12.8730   -7.3550 C.3    26  VAL26       0.1561
      3  C        -45.7010   12.7080   -6.0280 C.2    26  VAL26       0.2260
      4  O        -44.7690   13.4460   -5.7250 O.2    26  VAL26      -0.2867
      5  CB       -45.3560   12.8250   -8.4790 C.3    26  VAL26       0.0252
      6  CG1      -44.4920   11.5950   -8.3260 C.3    26  VAL26       0.0019
      7  CG2      -46.0440   12.8150   -9.8270 C.3    26  VAL26       0.0019
      8  N        -43.1790    7.4680   -6.0140 N.3    31  ALA31      -0.1245
      9  CA       -42.3010    7.6330   -7.1690 C.3    31  ALA31       0.1562
     10  C        -41.1160    6.6770   -7.0900 C.2    31  ALA31       0.2260
     11  O        -40.6930    6.1190   -8.1020 O.2    31  ALA31      -0.2867
     12  CB       -41.8010    9.0640   -7.2450 C.3    31  ALA31       0.0290
     13  N        -40.4020    3.7380   -9.7550 N.3    35  VAL35      -0.1245
     14  CA       -39.1650    3.7680  -10.5300 C.3    35  VAL35       0.1561
     15  C        -38.2940    2.5680  -10.1620 C.2    35  VAL35       0.2260
     16  O        -37.5490    2.0600  -10.9950 O.2    35  VAL35      -0.2867
     17  CB       -38.3850    5.0840  -10.2940 C.3    35  VAL35       0.0252
     18  CG1      -36.9940    4.9930  -10.9070 C.3    35  VAL35       0.0019
     19  CG2      -39.1530    6.2550  -10.9190 C.3    35  VAL35       0.0019
     20  N        -33.5070    8.1210   -3.5560 N.3    48  TYR48      -0.1241
     21  CA       -34.7370    8.8420   -3.2460 C.3    48  TYR48       0.1605
     22  C        -34.8940    9.2170   -1.7740 C.2    48  TYR48       0.2264
     23  O        -35.3930   10.3020   -1.4560 O.2    48  TYR48      -0.2867
     24  CB       -35.9610    8.0380   -3.7120 C.3    48  TYR48       0.0534
     25  CG       -36.2950    8.2160   -5.1830 C.ar   48  TYR48      -0.0201
     26  CD1      -35.4810    7.6800   -6.1790 C.ar   48  TYR48      -0.0009
     27  CD2      -37.4120    8.9540   -5.5790 C.ar   48  TYR48      -0.0009
     28  CE1      -35.7700    7.8790   -7.5350 C.ar   48  TYR48       0.0417
     29  CE2      -37.7070    9.1590   -6.9340 C.ar   48  TYR48       0.0417
     30  CZ       -36.8800    8.6210   -7.9020 C.ar   48  TYR48       0.1957
     31  OH       -37.1500    8.8480   -9.2350 O.3    48  TYR48      -0.2866
     32  N        -43.8220   16.4770   -5.7090 N.3    56  ARG56      -0.1245
     33  CA       -43.4090   17.2070   -6.9020 C.3    56  ARG56       0.1563
     34  C        -44.6550   17.2660   -7.7680 C.2    56  ARG56       0.2260
     35  O        -45.5390   16.4170   -7.6400 O.2    56  ARG56      -0.2867
     36  CB       -42.3030   16.4620   -7.6700 C.3    56  ARG56       0.0307
     37  CG       -40.9180   16.4820   -7.0140 C.3    56  ARG56       0.0489
     38  CD       -39.8830   15.8080   -7.9110 C.3    56  ARG56       0.2205
     39  NE       -39.8320   14.3580   -7.7330 N.pl3  56  ARG56      -0.0865
     40  CZ       -39.2010   13.5260   -8.5540 C.cat  56  ARG56       0.5346
     41  NH1      -38.5700   13.9900   -9.6300 N.pl3  56  ARG56       0.1354
     42  NH2      -39.1750   12.2330   -8.2810 N.pl3  56  ARG56       0.1354
     43  N        -46.0910   17.4440  -11.7710 N.3    58  MET58      -0.1245
     44  CA       -45.6240   17.1080  -13.1120 C.3    58  MET58       0.1570
     45  C        -46.7410   17.1870  -14.1400 C.2    58  MET58       0.2261
     46  O        -47.8180   16.6210  -13.9510 O.2    58  MET58      -0.2867
     47  CB       -45.0170   15.7060  -13.1170 C.3    58  MET58       0.0387
     48  CG       -43.7050   15.6100  -12.3830 C.3    58  MET58       0.0595
     49  SD       -43.1170   13.9300  -12.3060 S.3    58  MET58      -0.1393
     50  CE       -42.2510   13.9140  -10.7270 C.3    58  MET58       0.0692
     51  N        -44.7290   10.3990  -16.3650 N.3    62  PRO62      -0.2102
     52  CA       -43.7540    9.6440  -17.1600 C.3    62  PRO62       0.1504
     53  C        -43.9260    8.1240  -17.1410 C.2    62  PRO62       0.2575
     54  O        -43.6220    7.4460  -18.1240 O.2    62  PRO62      -0.2718
     55  CB       -42.4200   10.0910  -16.5690 C.3    62  PRO62       0.0282
     56  CG       -42.7640   10.3200  -15.1340 C.3    62  PRO62       0.0208
     57  CD       -44.0630   11.0820  -15.2420 C.3    62  PRO62       0.0893
     58  N        -44.4130    7.5840  -16.0320 N.am   63  LEU63      -0.1980
     59  CA       -44.6000    6.1450  -15.9380 C.3    63  LEU63       0.1596
     60  C        -46.0420    5.7360  -16.1890 C.2    63  LEU63       0.2287
     61  O        -46.5570    4.7940  -15.5890 O.2    63  LEU63      -0.2864
     62  CB       -44.1290    5.6440  -14.5750 C.3    63  LEU63       0.0297
     63  CG       -42.6380    5.8720  -14.3030 C.3    63  LEU63       0.0022
     64  CD1      -42.2410    5.1290  -13.0330 C.3    63  LEU63       0.0001
     65  CD2      -41.8060    5.3790  -15.4850 C.3    63  LEU63       0.0001
     66  N        -35.4190   26.0810  -19.7340 N.3   118  SER118     -0.1202
     67  CA       -34.3140   25.1980  -20.1040 C.3   118  SER118      0.2020
     68  C        -34.9180   23.8060  -20.3670 C.2   118  SER118      0.2619
     69  O        -34.2050   22.7960  -20.4370 O.2   118  SER118     -0.2717
     70  CB       -33.2710   25.1110  -18.9820 C.3   118  SER118      0.2103
     71  OG       -32.5480   26.3250  -18.8630 O.3   118  SER118     -0.2182
     72  N        -36.2370   23.7650  -20.5280 N.am  119  THR119     -0.1952
     73  CA       -36.9300   22.5030  -20.7580 C.3   119  THR119      0.1897
     74  C        -37.8760   22.4980  -21.9640 C.2   119  THR119      0.2313
     75  O        -38.6760   21.5770  -22.1040 O.2   119  THR119     -0.2863
     76  CB       -37.7310   22.0840  -19.4920 C.3   119  THR119      0.1794
     77  OG1      -38.5090   23.1900  -19.0260 O.3   119  THR119     -0.2208
     78  CG2      -36.7990   21.6370  -18.3830 C.3   119  THR119      0.0378
     79  N        -31.6450   27.9060  -21.6670 N.3   147  PHE147     -0.1241
     80  CA       -30.4470   27.2590  -21.1340 C.3   147  PHE147      0.1605
     81  C        -29.5890   28.0090  -20.1230 C.2   147  PHE147      0.2264
     82  O        -28.3730   27.8100  -20.0690 O.2   147  PHE147     -0.2867
     83  CB       -29.5640   26.7880  -22.2910 C.3   147  PHE147      0.0534
     84  CG       -29.7460   25.3350  -22.6370 C.ar  147  PHE147     -0.0203
     85  CD1      -30.7460   24.5800  -22.0310 C.ar  147  PHE147     -0.0042
     86  CD2      -28.8890   24.7090  -23.5380 C.ar  147  PHE147     -0.0042
     87  CE1      -30.8860   23.2260  -22.3120 C.ar  147  PHE147     -0.0003
     88  CE2      -29.0230   23.3590  -23.8220 C.ar  147  PHE147     -0.0003
     89  CZ       -30.0250   22.6170  -23.2040 C.ar  147  PHE147     -0.0000
     90  N        -30.4070   27.7260  -17.0940 N.3   149  GLY149     -0.1225
     91  CA       -30.7120   26.8740  -15.9530 C.3   149  GLY149      0.1811
     92  C        -31.4960   27.3570  -14.7480 C.2   149  GLY149      0.2280
     93  O        -32.4430   28.1280  -14.8600 O.2   149  GLY149     -0.2866
     94  N        -39.9410   19.7550  -16.4680 N.3   180  CYS180     -0.1221
     95  CA       -38.9560   18.6780  -16.5330 C.3   180  CYS180      0.1808
     96  C        -39.5650   17.3130  -16.8820 C.2   180  CYS180      0.2601
     97  O        -38.9190   16.4970  -17.5510 O.2   180  CYS180     -0.2717
     98  CB       -38.2170   18.5640  -15.1890 C.3   180  CYS180      0.0970
     99  SG       -37.2050   19.9950  -14.6990 S.3   180  CYS180     -0.0800
    100  N        -40.7990   17.0660  -16.4310 N.am  181  SER181     -0.1952
    101  CA       -41.4780   15.7790  -16.6710 C.3   181  SER181      0.1924
    102  C        -41.5170   15.3700  -18.1360 C.2   181  SER181      0.2314
    103  O        -41.3640   14.2050  -18.4710 O.2   181  SER181     -0.2863
    104  CB       -42.9050   15.8110  -16.1180 C.3   181  SER181      0.2116
    105  OG       -43.6460   16.8590  -16.7110 O.3   181  SER181     -0.2180
    106  N        -39.4010   15.6300  -20.1900 N.3   183  ASN183     -0.1225
    107  CA       -38.0920   15.1370  -20.6080 C.3   183  ASN183      0.1785
    108  C        -37.6470   13.8590  -19.9090 C.2   183  ASN183      0.2597
    109  O        -36.4840   13.4850  -20.0060 O.2   183  ASN183     -0.2718
    110  CB       -37.0100   16.2090  -20.3900 C.3   183  ASN183      0.1169
    111  CG       -37.2050   17.4350  -21.2640 C.2   183  ASN183      0.2627
    112  OD1      -37.8060   18.4230  -20.8410 O.2   183  ASN183     -0.2716
    113  ND2      -36.7030   17.3740  -22.4910 N.am  183  ASN183     -0.0877
    114  N        -38.5590   13.1810  -19.2210 N.am  184  ALA184     -0.1979
    115  CA       -38.2080   11.9530  -18.5110 C.3   184  ALA184      0.1597
    116  C        -37.6890   10.8680  -19.4540 C.2   184  ALA184      0.2287
    117  O        -38.2320   10.6640  -20.5450 O.2   184  ALA184     -0.2864
    118  CB       -39.4110   11.4360  -17.7230 C.3   184  ALA184      0.0319
    119  N        -35.2870    8.1060  -17.6730 N.3   186  PHE186     -0.1241
    120  CA       -34.9350    7.0150  -16.7660 C.3   186  PHE186      0.1605
    121  C        -33.7840    6.1670  -17.2920 C.2   186  PHE186      0.2264
    122  O        -33.9200    4.9520  -17.4550 O.2   186  PHE186     -0.2867
    123  CB       -36.1590    6.1180  -16.5090 C.3   186  PHE186      0.0534
    124  CG       -37.3240    6.8400  -15.8810 C.ar  186  PHE186     -0.0203
    125  CD1      -37.3100    7.1690  -14.5330 C.ar  186  PHE186     -0.0042
    126  CD2      -38.4190    7.2240  -16.6530 C.ar  186  PHE186     -0.0042
    127  CE1      -38.3660    7.8740  -13.9580 C.ar  186  PHE186     -0.0003
    128  CE2      -39.4780    7.9270  -16.0900 C.ar  186  PHE186     -0.0003
    129  CZ       -39.4510    8.2550  -14.7360 C.ar  186  PHE186     -0.0000
    130  N        -31.1850   13.1810  -11.0800 N.3   195  ILE195     -0.1231
    131  CA       -32.0000   14.2510  -11.6570 C.3   195  ILE195      0.1692
    132  C        -33.4860   13.8550  -11.7290 C.2   195  ILE195      0.2592
    133  O        -34.3670   14.6860  -11.5280 O.2   195  ILE195     -0.2718
    134  CB       -31.4800   14.6430  -13.0770 C.3   195  ILE195      0.0266
    135  CG1      -30.4120   15.7280  -12.9550 C.3   195  ILE195      0.0019
    136  CG2      -32.6130   15.1430  -13.9550 C.3   195  ILE195      0.0020
    137  CD1      -29.1200   15.2590  -12.3650 C.3   195  ILE195      0.0001
    138  N        -33.7600   12.5860  -12.0090 N.am  196  HIS196     -0.1976
    139  CA       -35.1390   12.1320  -12.0920 C.3   196  HIS196      0.1656
    140  C        -35.7610   12.0540  -10.7040 C.2   196  HIS196      0.2291
    141  O        -36.9880   12.0440  -10.5510 O.2   196  HIS196     -0.2864
    142  CB       -35.2110   10.7840  -12.8190 C.3   196  HIS196      0.0771
    143  CG       -35.0660   10.9060  -14.3070 C.ar  196  HIS196      0.0820
    144  ND1      -36.0960   10.6310  -15.1820 N.ar  196  HIS196     -0.2267
    145  CD2      -34.0300   11.3260  -15.0710 C.ar  196  HIS196      0.1154
    146  CE1      -35.7000   10.8760  -16.4170 C.ar  196  HIS196      0.1986
    147  NE2      -34.4510   11.3010  -16.3780 N.ar  196  HIS196     -0.2212
    148  N        -35.8790   16.7550   -9.9370 N.3   199  PHE199     -0.1241
    149  CA       -36.5450   17.7560  -10.7470 C.3   199  PHE199      0.1605
    150  C        -38.0620   17.6510  -10.7950 C.2   199  PHE199      0.2264
    151  O        -38.6230   16.5600  -10.8670 O.2   199  PHE199     -0.2867
    152  CB       -35.9770   17.7240  -12.1680 C.3   199  PHE199      0.0534
    153  CG       -34.5220   18.1160  -12.2660 C.ar  199  PHE199     -0.0203
    154  CD1      -33.7200   18.2180  -11.1290 C.ar  199  PHE199     -0.0042
    155  CD2      -33.9470   18.3500  -13.5070 C.ar  199  PHE199     -0.0042
    156  CE1      -32.3730   18.5440  -11.2320 C.ar  199  PHE199     -0.0003
    157  CE2      -32.5970   18.6780  -13.6190 C.ar  199  PHE199     -0.0003
    158  CZ       -31.8110   18.7750  -12.4820 C.ar  199  PHE199     -0.0000
    159  N        -25.8280   21.2980  -19.3670 N.3   241  LEU241     -0.1245
    160  CA       -27.1380   21.1450  -19.9890 C.3   241  LEU241      0.1561
    161  C        -26.9060   20.6710  -21.4290 C.2   241  LEU241      0.2260
    162  O        -25.9230   21.0460  -22.0640 O.2   241  LEU241     -0.2867
    163  CB       -27.8880   22.4840  -19.9920 C.3   241  LEU241      0.0270
    164  CG       -28.1420   23.1850  -18.6500 C.3   241  LEU241      0.0019
    165  CD1      -29.0000   24.4160  -18.8990 C.3   241  LEU241      0.0001
    166  CD2      -28.8390   22.2480  -17.6630 C.3   241  LEU241      0.0001
    167  N        -34.2390   16.7720  -23.2400 N.3   248  ILE248     -0.1231
    168  CA       -33.2330   17.6630  -22.6840 C.3   248  ILE248      0.1692
    169  C        -32.6420   16.9970  -21.4420 C.2   248  ILE248      0.2593
    170  O        -33.3360   16.2550  -20.7490 O.2   248  ILE248     -0.2718
    171  CB       -33.8670   19.0240  -22.3210 C.3   248  ILE248      0.0266
    172  CG1      -34.2860   19.7450  -23.6100 C.3   248  ILE248      0.0019
    173  CG2      -32.8930   19.8780  -21.5340 C.3   248  ILE248      0.0020
    174  CD1      -35.1350   20.9610  -23.3910 C.3   248  ILE248      0.0001
    175  N        -31.3590   17.2300  -21.1780 N.am  249  THR249     -0.1939
    176  CA       -30.7120   16.6410  -20.0080 C.3   249  THR249      0.2028
    177  C        -29.9030   17.6640  -19.2410 C.2   249  THR249      0.2642
    178  O        -29.5900   18.7440  -19.7360 O.2   249  THR249     -0.2714
    179  CB       -29.7000   15.5170  -20.3630 C.3   249  THR249      0.1808
    180  OG1      -30.1910   14.7300  -21.4530 O.3   249  THR249     -0.2208
    181  CG2      -29.4930   14.6040  -19.1600 C.3   249  THR249      0.0379
    182  N        -29.5580   17.2870  -18.0200 N.am  250  CYS250     -0.1967
    183  CA       -28.7360   18.1020  -17.1610 C.3   250  CYS250      0.1712
    184  C        -27.7060   17.1570  -16.5620 C.2   250  CYS250      0.2296
    185  O        -28.0520   16.0830  -16.0780 O.2   250  CYS250     -0.2864
    186  CB       -29.5720   18.7280  -16.0450 C.3   250  CYS250      0.0983
    187  SG       -28.5530   19.4810  -14.7690 S.3   250  CYS250     -0.0798
    188  N        -35.9790   24.1430  -11.1460 N.3   323  LEU323     -0.1245
    189  CA       -35.0330   24.9620  -11.9070 C.3   323  LEU323      0.1561
    190  C        -35.2460   26.4650  -11.6660 C.2   323  LEU323      0.2260
    191  O        -35.4370   26.8950  -10.5250 O.2   323  LEU323     -0.2867
    192  CB       -35.1530   24.6330  -13.4090 C.3   323  LEU323      0.0270
    193  CG       -34.4120   23.3950  -13.9500 C.3   323  LEU323      0.0019
    194  CD1      -34.3760   22.2950  -12.9060 C.3   323  LEU323      0.0001
    195  CD2      -35.0680   22.9040  -15.2240 C.3   323  LEU323      0.0001
@<TRIPOS>BOND
     1    88    86   ar
     2    88    89   ar
     3   172   174    1
     4   172   171    1
     5    86    84   ar
     6   167   168    1
     7    89    87   ar
     8   168   171    1
     9   168   169    1
    10    84    83    1
    11    84    85   ar
    12   113   111   am
    13   171   173    1
    14    87    85   ar
    15    83    80    1
    16    75    74    2
    17   162   161    2
    18    74    73    1
    19    79    80    1
    20   180   179    1
    21   169   175   am
    22   169   170    2
    23   161   160    1
    24   111   112    2
    25   111   110    1
    26   175   176    1
    27    80    81    1
    28    73    72    1
    29    73    76    1
    30   107   110    1
    31   107   106    1
    32   107   108    1
    33   117   116    2
    34    72    68   am
    35    69    68    2
    36    68    67    1
    37   179   176    1
    38   179   181    1
    39    81    82    2
    40    67    66    1
    41    67    70    1
    42   176   177    1
    43   109   108    2
    44   163   160    1
    45   163   164    1
    46   160   159    1
    47   108   114   am
    48   178   177    2
    49    76    77    1
    50    76    78    1
    51   116   115    1
    52   177   182   am
    53   114   115    1
    54    70    71    1
    55   165   164    1
    56   164   166    1
    57   115   118    1
    58   103   102    2
    59   102   101    1
    60    54    53    2
    61   182   183    1
    62   119   120    1
    63    97    96    2
    64   122   121    2
    65   121   120    1
    66   183   184    1
    67   183   186    1
    68    52    53    1
    69    52    55    1
    70    52    51    1
    71    53    58   am
    72    90    91    1
    73    96    95    1
    74    96   100   am
    75   120   123    1
    76   105   104    1
    77   101   100    1
    78   101   104    1
    79   126   128   ar
    80   126   124   ar
    81    55    56    1
    82   184   185    2
    83    95    94    1
    84    95    98    1
    85   123   124    1
    86   146   147   ar
    87   146   144   ar
    88   147   145   ar
    89    51    57    1
    90    60    59    1
    91    60    61    2
    92   128   129   ar
    93   186   187    1
    94    58    59    1
    95    91    92    1
    96    59    62    1
    97   124   125   ar
    98    65    63    1
    99    57    56    1
   100   195   193    1
   101    98    99    1
   102   144   143   ar
   103   145   143   ar
   104    93    92    2
   105   129   127   ar
   106    62    63    1
   107   125   127   ar
   108   143   142    1
   109    63    64    1
   110    45    46    2
   111    45    44    1
   112   136   134    1
   113   193   192    1
   114   193   194    1
   115   157   155   ar
   116   157   158   ar
   117   155   153   ar
   118   192   189    1
   119    47    44    1
   120    47    48    1
   121    44    43    1
   122   134   135    1
   123   134   131    1
   124   135   137    1
   125   142   139    1
   126   158   156   ar
   127    48    49    1
   128    49    50    1
   129   153   152    1
   130   153   154   ar
   131   152   149    1
   132   139   138    1
   133   139   140    1
   134   138   132   am
   135   189   190    1
   136   189   188    1
   137   132   131    1
   138   132   133    2
   139   190   191    2
   140   131   130    1
   141   156   154   ar
   142    16    15    2
   143    19    17    1
   144    18    17    1
   145   151   150    2
   146   150   149    1
   147   149   148    1
   148   140   141    2
   149    14    17    1
   150    14    15    1
   151    14    13    1
   152     7     5    1
   153    41    40    1
   154    31    30    1
   155    40    42    1
   156    40    39    2
   157     5     6    1
   158     5     2    1
   159    11    10    2
   160    38    39    1
   161    38    37    1
   162    30    28   ar
   163    30    29   ar
   164    34    35    2
   165    34    33    1
   166    36    37    1
   167    36    33    1
   168    28    26   ar
   169     1     2    1
   170     2     3    1
   171    12     9    1
   172     9    10    1
   173     9     8    1
   174    29    27   ar
   175    33    32    1
   176    26    25   ar
   177     3     4    2
   178    27    25   ar
   179    25    24    1
   180    24    21    1
   181    20    21    1
   182    21    22    1
   183    22    23    2
