@<TRIPOS>MOLECULE
tmp/1teiD00.pdb
 135 131 0 0 0
SMALL
GASTEIGER

@<TRIPOS>ATOM
      1  N         32.1380   32.2430   14.8350 N.3    12  TYR12      -0.1228
      2  CA        31.8800   33.4670   15.5840 C.3    12  TYR12       0.1721
      3  C         32.6690   33.5070   16.8800 C.2    12  TYR12       0.2437
      4  O         32.5650   32.6010   17.7120 O.2    12  TYR12      -0.2733
      5  CB        30.3890   33.5910   15.8670 C.3    12  TYR12       0.0547
      6  CG        30.0090   34.8570   16.5630 C.ar   12  TYR12      -0.0200
      7  CD1       29.6570   35.9850   15.8380 C.ar   12  TYR12      -0.0009
      8  CD2       30.0070   34.9330   17.9520 C.ar   12  TYR12      -0.0009
      9  CE1       29.3160   37.1670   16.4780 C.ar   12  TYR12       0.0417
     10  CE2       29.6710   36.1050   18.6050 C.ar   12  TYR12       0.0417
     11  CZ        29.3300   37.2190   17.8650 C.ar   12  TYR12       0.1957
     12  OH        29.0440   38.4010   18.5050 O.3    12  TYR12      -0.2866
     13  N         33.5060   34.5410   17.0520 N.am   13  PRO13      -0.2718
     14  CA        34.3070   34.6670   18.2650 C.3    13  PRO13       0.1535
     15  C         33.5470   35.1770   19.4930 C.2    13  PRO13       0.2599
     16  O         32.9210   36.2380   19.4750 O.2    13  PRO13      -0.2715
     17  CB        35.4110   35.6170   17.8300 C.3    13  PRO13       0.0310
     18  CG        34.7340   36.4710   16.8560 C.3    13  PRO13       0.0237
     19  CD        33.9400   35.5150   16.0430 C.3    13  PRO13       0.0939
     20  N         33.5660   34.3650   20.5420 N.am   14  ASN14      -0.1959
     21  CA        32.9070   34.6840   21.7980 C.3    14  ASN14       0.1819
     22  C         34.0460   34.8800   22.7970 C.2    14  ASN14       0.2622
     23  O         34.3290   33.9990   23.6290 O.2    14  ASN14      -0.2715
     24  CB        31.9780   33.5340   22.2270 C.3    14  ASN14       0.1195
     25  CG        30.9270   33.2250   21.1810 C.2    14  ASN14       0.2630
     26  OD1       31.0920   32.3260   20.3850 O.2    14  ASN14      -0.2716
     27  ND2       29.8610   34.0000   21.1590 N.am   14  ASN14      -0.0877
     28  N         34.7010   36.0390   22.6990 N.am   15  THR15      -0.1937
     29  CA        35.8260   36.3820   23.5720 C.3    15  THR15       0.2028
     30  C         35.5620   36.1790   25.0540 C.2    15  THR15       0.2642
     31  O         36.4660   35.7760   25.7880 O.2    15  THR15      -0.2714
     32  CB        36.3650   37.8110   23.2970 C.3    15  THR15       0.1808
     33  OG1       35.2750   38.7290   23.1970 O.3    15  THR15      -0.2208
     34  CG2       37.1430   37.8510   21.9940 C.3    15  THR15       0.0379
     35  N         34.3150   36.3910   25.4810 N.am   16  ASP16      -0.1971
     36  CA        33.9640   36.2170   26.8950 C.3    16  ASP16       0.1709
     37  C         34.1770   34.7990   27.3930 C.2    16  ASP16       0.2293
     38  O         34.6010   34.5990   28.5200 O.2    16  ASP16      -0.2864
     39  CB        32.5380   36.7150   27.2380 C.3    16  ASP16       0.1436
     40  CG        31.4450   36.1240   26.3460 C.2    16  ASP16       0.3671
     41  OD1       31.7450   35.4080   25.3680 O.co2  16  ASP16      -0.2456
     42  OD2       30.2580   36.4050   26.6270 O.co2  16  ASP16      -0.2456
     43  N         39.8590   36.3130   19.0550 N.3    21  SER21      -0.1217
     44  CA        39.0200   37.3180   18.4010 C.3    21  SER21       0.1889
     45  C         38.8130   37.1890   16.8980 C.2    21  SER21       0.2288
     46  O         38.4890   38.1670   16.2200 O.2    21  SER21      -0.2866
     47  CB        39.4970   38.7310   18.7720 C.3    21  SER21       0.2089
     48  OG        40.8830   38.7420   19.0740 O.3    21  SER21      -0.2183
     49  N         22.7720   31.3530   16.4690 N.3    98  GLY98      -0.1210
     50  CA        22.2570   32.0100   17.6590 C.3    98  GLY98       0.1956
     51  C         21.5970   33.2900   17.1780 C.2    98  GLY98       0.2612
     52  O         20.7330   33.2670   16.2810 O.2    98  GLY98      -0.2717
     53  N         22.0290   34.4150   17.7410 N.am   99  LEU99      -0.1965
     54  CA        21.4830   35.6960   17.3550 C.3    99  LEU99       0.1728
     55  C         21.8030   35.8740   15.8580 C.2    99  LEU99       0.2616
     56  O         20.9680   36.3510   15.0800 O.2    99  LEU99      -0.2715
     57  CB        22.1290   36.7750   18.2130 C.3    99  LEU99       0.0311
     58  CG        21.5930   38.2020   18.1270 C.3    99  LEU99       0.0022
     59  CD1       20.0520   38.2340   18.0680 C.3    99  LEU99       0.0001
     60  CD2       22.1190   38.9590   19.3360 C.3    99  LEU99       0.0001
     61  N         23.0090   35.4610   15.4610 N.am  100  TYR100     -0.1974
     62  CA        23.4590   35.5520   14.0640 C.3   100  TYR100      0.1639
     63  C         23.3970   34.1420   13.4570 C.2   100  TYR100      0.2290
     64  O         23.5230   33.1500   14.1750 O.2   100  TYR100     -0.2864
     65  CB        24.8820   36.1200   13.9930 C.3   100  TYR100      0.0560
     66  CG        24.9660   37.5120   14.5740 C.ar  100  TYR100     -0.0198
     67  CD1       24.2230   38.5510   14.0220 C.ar  100  TYR100     -0.0009
     68  CD2       25.7010   37.7690   15.7350 C.ar  100  TYR100     -0.0009
     69  CE1       24.1910   39.8030   14.6090 C.ar  100  TYR100      0.0417
     70  CE2       25.6740   39.0230   16.3340 C.ar  100  TYR100      0.0417
     71  CZ        24.9090   40.0350   15.7630 C.ar  100  TYR100      0.1957
     72  OH        24.8210   41.2730   16.3570 O.3   100  TYR100     -0.2866
     73  N         18.9650   30.8090   16.0570 N.3   168  SER168     -0.1217
     74  CA        18.5600   29.8860   17.1140 C.3   168  SER168      0.1889
     75  C         18.2110   28.4980   16.5720 C.2   168  SER168      0.2288
     76  O         17.0690   28.0420   16.6700 O.2   168  SER168     -0.2866
     77  CB        17.3870   30.4700   17.8930 C.3   168  SER168      0.2089
     78  OG        17.8110   30.9710   19.1450 O.3   168  SER168     -0.2183
     79  N         28.2050   39.0610   10.8280 N.3   205  HIS205     -0.1241
     80  CA        29.2180   38.1560   11.3190 C.3   205  HIS205      0.1621
     81  C         28.5120   36.8320   11.3970 C.2   205  HIS205      0.2264
     82  O         27.4840   36.7180   12.0580 O.2   205  HIS205     -0.2867
     83  CB        29.7500   38.5890   12.6880 C.3   205  HIS205      0.0745
     84  CG        30.1290   40.0380   12.7640 C.ar  205  HIS205      0.0817
     85  ND1       31.4340   40.4770   12.7240 N.ar  205  HIS205     -0.2268
     86  CD2       29.3700   41.1420   12.9250 C.ar  205  HIS205      0.1154
     87  CE1       31.4610   41.7910   12.8600 C.ar  205  HIS205      0.1986
     88  NE2       30.2220   42.2200   12.9850 N.ar  205  HIS205     -0.2212
     89  N         27.6700   32.9290   12.2810 N.3   207  ALA207     -0.1231
     90  CA        27.6900   32.2210   13.5480 C.3   207  ALA207      0.1694
     91  C         26.8170   30.9760   13.3640 C.2   207  ALA207      0.2592
     92  O         25.9200   30.9840   12.5100 O.2   207  ALA207     -0.2718
     93  CB        27.1200   33.1250   14.6360 C.3   207  ALA207      0.0304
     94  N         27.0670   29.9050   14.1210 N.am  208  ASP208     -0.1974
     95  CA        28.1260   29.8490   15.1160 C.3   208  ASP208      0.1709
     96  C         29.2630   28.8970   14.7980 C.2   208  ASP208      0.2293
     97  O         30.3640   29.0550   15.3240 O.2   208  ASP208     -0.2864
     98  CB        27.5560   29.5090   16.4850 C.3   208  ASP208      0.1436
     99  CG        27.1910   30.7450   17.2730 C.2   208  ASP208      0.3671
    100  OD1       26.0070   31.0940   17.3530 O.co2 208  ASP208     -0.2456
    101  OD2       28.0910   31.4040   17.8050 O.co2 208  ASP208     -0.2456
    102  N         19.2930   24.0440   25.4230 N.3   224  GLY224     -0.1225
    103  CA        19.8060   25.3820   25.2050 C.3   224  GLY224      0.1811
    104  C         21.2410   25.4860   24.7280 C.2   224  GLY224      0.2280
    105  O         21.9510   26.4070   25.1140 O.2   224  GLY224     -0.2866
    106  N         22.2750   26.2040   21.7060 N.3   226  THR226     -0.1203
    107  CA        22.3270   26.8590   20.4130 C.3   226  THR226      0.1994
    108  C         23.4350   27.8930   20.5840 C.2   226  THR226      0.2618
    109  O         24.0930   27.9540   21.6450 O.2   226  THR226     -0.2717
    110  CB        21.0500   27.6110   20.0830 C.3   226  THR226      0.1784
    111  OG1       20.5280   28.1660   21.2840 O.3   226  THR226     -0.2211
    112  CG2       20.0240   26.7080   19.4580 C.3   226  THR226      0.0376
    113  N         23.6140   28.7320   19.5700 N.am  227  GLY227     -0.1942
    114  CA        24.6450   29.7340   19.6560 C.3   227  GLY227      0.2014
    115  C         26.0350   29.1430   19.8660 C.2   227  GLY227      0.2639
    116  O         26.3840   28.0860   19.3200 O.2   227  GLY227     -0.2714
    117  N         26.7980   29.8210   20.7160 N.am  228  ARG228     -0.1963
    118  CA        28.1680   29.4780   21.0780 C.3   228  ARG228      0.1729
    119  C         28.4280   28.1130   21.6510 C.2   228  ARG228      0.2616
    120  O         29.5880   27.7580   21.8500 O.2   228  ARG228     -0.2715
    121  CB        28.6990   30.4930   22.0840 C.3   228  ARG228      0.0348
    122  CG        27.9300   30.4420   23.3850 C.3   228  ARG228      0.0492
    123  CD        28.7830   30.7500   24.5790 C.3   228  ARG228      0.2205
    124  NE        28.7720   32.1650   24.9450 N.pl3 228  ARG228     -0.0865
    125  CZ        28.4650   32.6240   26.1590 C.cat 228  ARG228      0.5346
    126  NH1       28.1340   31.7800   27.1320 N.pl3 228  ARG228      0.1354
    127  NH2       28.5120   33.9280   26.4050 N.pl3 228  ARG228      0.1354
    128  N         27.3830   27.3840   22.0230 N.am  229  LEU229     -0.1977
    129  CA        27.5960   26.0500   22.5860 C.3   229  LEU229      0.1596
    130  C         27.7400   24.9270   21.5470 C.2   229  LEU229      0.2287
    131  O         28.1060   23.7920   21.8980 O.2   229  LEU229     -0.2864
    132  CB        26.5450   25.7360   23.6410 C.3   229  LEU229      0.0297
    133  CG        26.7110   26.6070   24.8980 C.3   229  LEU229      0.0022
    134  CD1       25.5990   26.3160   25.9040 C.3   229  LEU229      0.0001
    135  CD2       28.0750   26.3590   25.5510 C.3   229  LEU229      0.0001
@<TRIPOS>BOND
     1    79    80    1
     2    80    81    1
     3    80    83    1
     4    81    82    2
     5    89    90    1
     6    92    91    2
     7    83    84    1
     8    85    84   ar
     9    85    87   ar
    10    84    86   ar
    11    87    88   ar
    12    86    88   ar
    13    91    90    1
    14    91    94   am
    15    63    62    1
    16    63    64    2
    17    90    93    1
    18    65    62    1
    19    65    66    1
    20    67    66   ar
    21    67    69   ar
    22    62    61    1
    23    94    95    1
    24    66    68   ar
    25    69    71   ar
    26    96    95    1
    27    96    97    2
    28     1     2    1
    29    56    55    2
    30    95    98    1
    31    61    55   am
    32     2     5    1
    33     2     3    1
    34    68    70   ar
    35    71    70   ar
    36    71    72    1
    37     7     9   ar
    38     7     6   ar
    39    55    54    1
    40     5     6    1
    41    19    18    1
    42    19    13    1
    43    73    74    1
    44    46    45    2
    45    52    51    2
    46    49    50    1
    47     9    11   ar
    48    98    99    1
    49     6     8   ar
    50    75    76    2
    51    75    74    1
    52    18    17    1
    53     3    13   am
    54     3     4    2
    55    45    44    1
    56    13    14    1
    57    74    77    1
    58    51    50    1
    59    51    53   am
    60    99   100   ar
    61    99   101   ar
    62    54    53    1
    63    54    57    1
    64    17    14    1
    65    11    12    1
    66    11    10   ar
    67    77    78    1
    68     8    10   ar
    69    59    58    1
    70    58    57    1
    71    58    60    1
    72    14    15    1
    73    44    47    1
    74    44    43    1
    75    47    48    1
    76   116   115    2
    77   112   110    1
    78    16    15    2
    79    15    20   am
    80   113   114    1
    81   113   108   am
    82   114   115    1
    83   115   117   am
    84   110   107    1
    85   110   111    1
    86    26    25    2
    87   107   108    1
    88   107   106    1
    89    20    21    1
    90   108   109    2
    91   117   118    1
    92   118   119    1
    93   118   121    1
    94    27    25   am
    95    25    24    1
    96   130   131    2
    97   130   129    1
    98   119   120    2
    99   119   128   am
   100    21    24    1
   101    21    22    1
   102    34    32    1
   103   128   129    1
   104   121   122    1
   105   129   132    1
   106    28    22   am
   107    28    29    1
   108    22    23    2
   109    33    32    1
   110    32    29    1
   111   122   123    1
   112    29    30    1
   113   132   133    1
   114   123   124    1
   115   104   105    2
   116   104   103    1
   117   133   135    1
   118   133   134    1
   119   124   125    2
   120    30    35   am
   121    30    31    2
   122   103   102    1
   123    41    40   ar
   124    35    36    1
   125   125   127    1
   126   125   126    1
   127    40    42   ar
   128    40    39    1
   129    36    39    1
   130    36    37    1
   131    37    38    2
