@<TRIPOS>MOLECULE
tmp/1temA00.pdb
 116 106 0 0 0
SMALL
GASTEIGER

@<TRIPOS>ATOM
      1  N         12.4620    2.2990   33.4400 N.3    44  MET44      -0.1230
      2  CA        12.3200    3.5730   34.1380 C.3    44  MET44       0.1702
      3  C         10.9430    3.5570   34.8200 C.2    44  MET44       0.2593
      4  O         10.4520    2.4850   35.1820 O.2    44  MET44      -0.2718
      5  CB        12.4490    4.7470   33.1560 C.3    44  MET44       0.0401
      6  CG        13.7570    4.7730   32.3800 C.3    44  MET44       0.0596
      7  SD        13.5990    5.7660   30.8800 S.3    44  MET44      -0.1393
      8  CE        12.3360    4.8350   29.9640 C.3    44  MET44       0.0692
      9  N         10.3050    4.7210   34.9480 N.am   45  SER45      -0.1952
     10  CA         8.9940    4.7970   35.5960 C.3    45  SER45       0.1924
     11  C          7.8200    4.0700   34.9110 C.2    45  SER45       0.2314
     12  O          6.7520    3.9620   35.5000 O.2    45  SER45      -0.2863
     13  CB         8.6200    6.2570   35.8640 C.3    45  SER45       0.2116
     14  OG         9.5770    6.9350   36.6580 O.3    45  SER45      -0.2180
     15  N          5.8750    1.2850   36.8550 N.3    48  LYS48      -0.1245
     16  CA         4.8430    1.6350   37.8340 C.3    48  LYS48       0.1561
     17  C          3.4480    1.1450   37.4760 C.2    48  LYS48       0.2260
     18  O          2.6350    0.8730   38.3650 O.2    48  LYS48      -0.2867
     19  CB         4.8500    3.1370   38.1120 C.3    48  LYS48       0.0271
     20  CG         6.1010    3.5730   38.8660 C.3    48  LYS48       0.0035
     21  CD         6.2990    5.0650   38.8350 C.3    48  LYS48       0.0206
     22  CE         7.5990    5.4370   39.5240 C.3    48  LYS48       0.1093
     23  NZ         7.9330    6.8670   39.3260 N.3    48  LYS48      -0.1314
     24  N         12.1530   13.1530   43.6870 N.3    80  TYR80      -0.1241
     25  CA        10.8980   13.2590   42.9480 C.3    80  TYR80       0.1605
     26  C          9.7120   12.5430   43.6060 C.2    80  TYR80       0.2264
     27  O          9.2390   11.4970   43.1510 O.2    80  TYR80      -0.2867
     28  CB        11.0550   12.8340   41.4800 C.3    80  TYR80       0.0534
     29  CG         9.8610   13.2520   40.6520 C.ar   80  TYR80      -0.0201
     30  CD1        9.6210   14.6000   40.3760 C.ar   80  TYR80      -0.0009
     31  CD2        8.9060   12.3170   40.2490 C.ar   80  TYR80      -0.0009
     32  CE1        8.4550   15.0070   39.7320 C.ar   80  TYR80       0.0417
     33  CE2        7.7360   12.7140   39.6050 C.ar   80  TYR80       0.0417
     34  CZ         7.5150   14.0590   39.3540 C.ar   80  TYR80       0.1957
     35  OH         6.3460   14.4610   38.7510 O.3    80  TYR80      -0.2866
     36  N          3.8940   10.0320   38.7510 N.3   105  SER105     -0.1217
     37  CA         5.1470    9.2820   38.7260 C.3   105  SER105      0.1889
     38  C          5.9570    9.4570   40.0120 C.2   105  SER105      0.2288
     39  O          7.1910    9.4850   39.9870 O.2   105  SER105     -0.2866
     40  CB         5.9820    9.6760   37.5110 C.3   105  SER105      0.2089
     41  OG         6.8450    8.6180   37.1350 O.3   105  SER105     -0.2183
     42  N          8.0630    8.7820   43.0280 N.3   107  ASN107     -0.1240
     43  CA         9.0210    7.7110   43.3260 C.3   107  ASN107      0.1653
     44  C          8.8550    7.0050   44.6690 C.2   107  ASN107      0.2266
     45  O          8.9980    5.7800   44.7530 O.2   107  ASN107     -0.2867
     46  CB        10.4650    8.2090   43.1890 C.3   107  ASN107      0.1155
     47  CG        10.9510    8.2250   41.7480 C.2   107  ASN107      0.2627
     48  OD1       10.3940    7.5430   40.8870 O.2   107  ASN107     -0.2716
     49  ND2       11.9650    9.0270   41.4710 N.am  107  ASN107     -0.0877
     50  N         13.5870    2.5780   43.5650 N.3   141  GLU141     -0.1245
     51  CA        13.8030    3.9420   43.0990 C.3   141  GLU141      0.1567
     52  C         14.8010    4.5810   44.0670 C.2   141  GLU141      0.2260
     53  O         14.7160    4.3680   45.2750 O.2   141  GLU141     -0.2867
     54  CB        12.4900    4.7310   43.1170 C.3   141  GLU141      0.0388
     55  CG        11.4580    4.2800   42.1000 C.3   141  GLU141      0.1160
     56  CD        11.7620    4.7410   40.6820 C.2   141  GLU141      0.3649
     57  OE1       12.8240    5.3500   40.4410 O.co2 141  GLU141     -0.2457
     58  OE2       10.9190    4.5100   39.7970 O.co2 141  GLU141     -0.2457
     59  N         16.9280    3.4950   37.6320 N.3   145  ASN145     -0.1240
     60  CA        17.0490    4.3810   36.4700 C.3   145  ASN145      0.1653
     61  C         18.4850    4.5570   35.9540 C.2   145  ASN145      0.2266
     62  O         18.7150    5.3590   35.0400 O.2   145  ASN145     -0.2867
     63  CB        16.4880    5.7720   36.7960 C.3   145  ASN145      0.1155
     64  CG        15.0280    5.7410   37.1980 C.2   145  ASN145      0.2627
     65  OD1       14.1680    5.3210   36.4240 O.2   145  ASN145     -0.2716
     66  ND2       14.7410    6.1700   38.4120 N.am  145  ASN145     -0.0877
     67  N          1.7780   13.9720   33.8910 N.3   191  VAL191     -0.1245
     68  CA         3.1440   14.3180   33.5170 C.3   191  VAL191      0.1561
     69  C          3.6760   13.8480   32.1670 C.2   191  VAL191      0.2260
     70  O          4.8900   13.7860   31.9830 O.2   191  VAL191     -0.2867
     71  CB         4.1370   13.8830   34.6270 C.3   191  VAL191      0.0252
     72  CG1        3.7760   14.5660   35.9460 C.3   191  VAL191      0.0019
     73  CG2        4.1370   12.3490   34.7890 C.3   191  VAL191      0.0019
     74  N          1.8180    6.2540   30.3920 N.3   209  LYS209     -0.1231
     75  CA         2.7670    6.3450   31.4960 C.3   209  LYS209      0.1693
     76  C          4.1370    6.5430   30.8620 C.2   209  LYS209      0.2593
     77  O          4.5910    5.7260   30.0480 O.2   209  LYS209     -0.2718
     78  CB         2.7760    5.0680   32.3430 C.3   209  LYS209      0.0285
     79  CG         3.7530    5.1230   33.5170 C.3   209  LYS209      0.0035
     80  CD         3.2380    6.0530   34.6170 C.3   209  LYS209      0.0206
     81  CE         4.3420    6.4540   35.5880 C.3   209  LYS209      0.1093
     82  NZ         5.2330    7.4940   35.0030 N.3   209  LYS209     -0.1314
     83  N          4.7890    7.6320   31.2310 N.am  210  SER210     -0.1938
     84  CA         6.0940    7.9430   30.6870 C.3   210  SER210      0.2055
     85  C          7.2140    7.5890   31.6560 C.2   210  SER210      0.2644
     86  O          6.9650    7.1410   32.7850 O.2   210  SER210     -0.2714
     87  CB         6.1470    9.4270   30.3200 C.3   210  SER210      0.2130
     88  OG         5.7160   10.2370   31.3980 O.3   210  SER210     -0.2179
     89  N          8.4480    7.7800   31.2060 N.am  211  GLY211     -0.1939
     90  CA         9.5860    7.4900   32.0460 C.3   211  GLY211      0.2014
     91  C         10.8090    8.2280   31.5600 C.2   211  GLY211      0.2638
     92  O         10.9150    8.5870   30.3850 O.2   211  GLY211     -0.2714
     93  N         11.7240    8.4820   32.4830 N.am  212  ALA212     -0.1977
     94  CA        12.9730    9.1590   32.1780 C.3   212  ALA212      0.1597
     95  C         14.0030    8.5110   33.0890 C.2   212  ALA212      0.2287
     96  O         13.6580    8.0100   34.1650 O.2   212  ALA212     -0.2864
     97  CB        12.8580   10.6450   32.4730 C.3   212  ALA212      0.0319
     98  N         14.5520    7.5980   27.9510 N.3   218  ARG218     -0.1245
     99  CA        13.2310    8.2140   27.8790 C.3   218  ARG218      0.1563
    100  C         12.2960    7.1650   27.2860 C.2   218  ARG218      0.2260
    101  O         12.7230    6.3610   26.4550 O.2   218  ARG218     -0.2867
    102  CB        13.2740    9.4440   26.9630 C.3   218  ARG218      0.0307
    103  CG        12.0400   10.3330   27.0280 C.3   218  ARG218      0.0489
    104  CD        11.9050   10.9640   28.4020 C.3   218  ARG218      0.2205
    105  NE        10.9500   12.0710   28.4180 N.pl3 218  ARG218     -0.0865
    106  CZ         9.9330   12.1720   29.2660 C.cat 218  ARG218      0.5346
    107  NH1        9.7150   11.2280   30.1700 N.pl3 218  ARG218      0.1354
    108  NH2        9.1700   13.2540   29.2480 N.pl3 218  ARG218      0.1354
    109  N         16.3380   16.8580   27.3250 N.3   245  MET245     -0.1245
    110  CA        15.0090   16.3170   27.5650 C.3   245  MET245      0.1570
    111  C         14.0580   16.8080   26.4780 C.2   245  MET245      0.2261
    112  O         13.3290   16.0180   25.8830 O.2   245  MET245     -0.2867
    113  CB        14.4920   16.7610   28.9370 C.3   245  MET245      0.0387
    114  CG        13.2110   16.0550   29.3620 C.3   245  MET245      0.0595
    115  SD        13.4370   14.2620   29.4330 S.3   245  MET245     -0.1393
    116  CE        14.3290   14.0910   30.9870 C.3   245  MET245      0.0692
@<TRIPOS>BOND
     1   112   111    2
     2   101   100    2
     3   111   110    1
     4   102   103    1
     5   102    99    1
     6   103   104    1
     7   100    99    1
     8   109   110    1
     9   110   113    1
    10    99    98    1
    11   104   105    1
    12   105   106    2
    13   113   114    1
    14   108   106    1
    15   106   107    1
    16   114   115    1
    17   115   116    1
    18     8     7    1
    19    77    76    2
    20    87    84    1
    21    87    88    1
    22    92    91    2
    23    74    75    1
    24    84    83    1
    25    84    85    1
    26    76    83   am
    27    76    75    1
    28     7     6    1
    29    89    85   am
    30    89    90    1
    31    75    78    1
    32    91    90    1
    33    91    93   am
    34    85    86    2
    35    70    69    2
    36    69    68    1
    37    94    97    1
    38    94    93    1
    39    94    95    1
    40    78    79    1
    41     6     5    1
    42    95    96    2
    43     5     2    1
    44     1     2    1
    45    68    67    1
    46    68    71    1
    47    79    80    1
    48     2     3    1
    49    80    81    1
    50    71    73    1
    51    71    72    1
    52     3     9   am
    53     3     4    2
    54    11    12    2
    55    11    10    1
    56     9    10    1
    57    82    81    1
    58    62    61    2
    59    10    13    1
    60    13    14    1
    61    61    60    1
    62    65    64    2
    63    60    63    1
    64    60    59    1
    65    63    64    1
    66    15    16    1
    67    41    40    1
    68    64    66   am
    69    17    16    1
    70    17    18    2
    71    40    37    1
    72    16    19    1
    73    19    20    1
    74    37    36    1
    75    37    38    1
    76    35    34    1
    77    21    20    1
    78    21    22    1
    79    23    22    1
    80    34    33   ar
    81    34    32   ar
    82    33    31   ar
    83    32    30   ar
    84    58    56   ar
    85    39    38    2
    86    31    29   ar
    87    30    29   ar
    88    57    56   ar
    89    29    28    1
    90    56    55    1
    91    48    47    2
    92    49    47   am
    93    28    25    1
    94    47    46    1
    95    55    54    1
    96    25    26    1
    97    25    24    1
    98    42    43    1
    99    51    54    1
   100    51    50    1
   101    51    52    1
   102    27    26    2
   103    46    43    1
   104    43    44    1
   105    52    53    2
   106    44    45    2
