@<TRIPOS>MOLECULE
tmp/1texD01.pdb
 161 156 0 0 0
SMALL
GASTEIGER

@<TRIPOS>ATOM
      1  N        -15.5880  -42.5720   37.9050 N.3    12  GLN12      -0.1231
      2  CA       -16.9410  -41.9830   37.7750 C.3    12  GLN12       0.1698
      3  C        -17.3900  -41.2070   39.0340 C.2    12  GLN12       0.2592
      4  O        -17.2170  -41.6820   40.1590 O.2    12  GLN12      -0.2718
      5  CB       -17.9830  -43.0600   37.3990 C.3    12  GLN12       0.0381
      6  CG       -17.8900  -43.6100   35.9790 C.3    12  GLN12       0.0905
      7  CD       -16.8050  -44.6370   35.7810 C.2    12  GLN12       0.2608
      8  OE1      -16.1150  -45.0000   36.7060 O.2    12  GLN12      -0.2717
      9  NE2      -16.6270  -45.0790   34.5440 N.am   12  GLN12      -0.0878
     10  N        -17.9390  -40.0190   38.8140 N.am   13  ARG13      -0.1980
     11  CA       -18.4970  -39.1390   39.8660 C.3    13  ARG13       0.1597
     12  C        -17.4120  -38.7170   40.8800 C.2    13  ARG13       0.2287
     13  O        -17.6060  -38.7520   42.1050 O.2    13  ARG13      -0.2864
     14  CB       -19.7610  -39.7490   40.5150 C.3    13  ARG13       0.0334
     15  CG       -21.1060  -39.4410   39.7790 C.3    13  ARG13       0.0492
     16  CD       -21.5840  -37.9730   39.9430 C.3    13  ARG13       0.2205
     17  NE       -23.0430  -37.7300   39.9170 N.pl3  13  ARG13      -0.0865
     18  CZ       -23.9500  -38.2490   40.7610 C.cat  13  ARG13       0.5346
     19  NH1      -23.5900  -39.0960   41.6990 N.pl3  13  ARG13       0.1354
     20  NH2      -25.2380  -37.9220   40.6740 N.pl3  13  ARG13       0.1354
     21  N        -15.6490  -34.3340   36.1500 N.3    17  THR17      -0.1218
     22  CA       -16.5200  -33.6270   35.2070 C.3    17  THR17       0.1862
     23  C        -16.7750  -32.1780   35.6310 C.2    17  THR17       0.2287
     24  O        -17.2450  -31.3640   34.8620 O.2    17  THR17      -0.2866
     25  CB       -17.8340  -34.4080   34.8270 C.3    17  THR17       0.1770
     26  OG1      -18.9450  -33.8610   35.5150 O.3    17  THR17      -0.2211
     27  CG2      -17.8240  -35.8390   35.2490 C.3    17  THR17       0.0375
     28  N        -15.9070  -29.2990   32.9090 N.3    21  GLU21      -0.1245
     29  CA       -16.8810  -28.2940   32.4510 C.3    21  GLU21       0.1567
     30  C        -16.4260  -26.8680   32.6710 C.2    21  GLU21       0.2260
     31  O        -16.7610  -25.9920   31.9000 O.2    21  GLU21      -0.2867
     32  CB       -18.2930  -28.5340   32.9940 C.3    21  GLU21       0.0388
     33  CG       -18.9120  -29.8580   32.5550 C.3    21  GLU21       0.1160
     34  CD       -18.9570  -30.0420   31.0380 C.2    21  GLU21       0.3649
     35  OE1      -19.1530  -29.0700   30.3080 O.co2  21  GLU21      -0.2457
     36  OE2      -18.7810  -31.1720   30.5580 O.co2  21  GLU21      -0.2457
     37  N        -14.7500  -34.6520   26.3730 N.3    33  GLN33      -0.1231
     38  CA       -15.9140  -35.5050   26.4380 C.3    33  GLN33       0.1698
     39  C        -15.3400  -36.7290   26.9900 C.2    33  GLN33       0.2592
     40  O        -14.1220  -36.8720   26.9600 O.2    33  GLN33      -0.2718
     41  CB       -16.4870  -35.7770   25.0530 C.3    33  GLN33       0.0381
     42  CG       -17.0670  -34.5550   24.4040 C.3    33  GLN33       0.0905
     43  CD       -18.3980  -34.1370   25.0200 C.2    33  GLN33       0.2608
     44  OE1      -18.6480  -32.9490   25.2380 O.2    33  GLN33      -0.2717
     45  NE2      -19.2610  -35.1170   25.2860 N.am   33  GLN33      -0.0878
     46  N        -16.1630  -37.6360   27.5000 N.am   34  GLU34      -0.1979
     47  CA       -15.6280  -38.9590   27.7650 C.3    34  GLU34       0.1602
     48  C        -15.5780  -39.6700   26.4150 C.2    34  GLU34       0.2287
     49  O        -16.4210  -40.5120   26.1410 O.2    34  GLU34      -0.2864
     50  CB       -16.4780  -39.7240   28.7660 C.3    34  GLU34       0.0415
     51  CG       -16.4970  -39.1280   30.1600 C.3    34  GLU34       0.1163
     52  CD       -16.8990  -40.1360   31.2490 C.2    34  GLU34       0.3649
     53  OE1      -16.4370  -41.2850   31.2090 O.co2  34  GLU34      -0.2457
     54  OE2      -17.6780  -39.7740   32.1560 O.co2  34  GLU34      -0.2457
     55  N        -15.7100  -43.7870   26.1800 N.3    37  GLN37      -0.1231
     56  CA       -16.5890  -44.5870   27.0410 C.3    37  GLN37       0.1698
     57  C        -17.4940  -45.5510   26.2900 C.2    37  GLN37       0.2592
     58  O        -18.1500  -46.3930   26.8960 O.2    37  GLN37      -0.2718
     59  CB       -17.4780  -43.6660   27.8540 C.3    37  GLN37       0.0381
     60  CG       -18.4180  -42.8320   26.9690 C.3    37  GLN37       0.0905
     61  CD       -19.2590  -41.9560   27.7880 C.2    37  GLN37       0.2608
     62  OE1      -19.7860  -40.9350   27.3260 O.2    37  GLN37      -0.2717
     63  NE2      -19.4110  -42.3380   29.0220 N.am   37  GLN37      -0.0878
     64  N        -17.6000  -45.3780   24.9880 N.am   38  TYR38      -0.1976
     65  CA       -18.6210  -46.0790   24.2410 C.3    38  TYR38       0.1639
     66  C        -18.1890  -47.5160   23.9410 C.2    38  TYR38       0.2290
     67  O        -17.0650  -47.7540   23.5390 O.2    38  TYR38      -0.2864
     68  CB       -18.9900  -45.2780   23.0180 C.3    38  TYR38       0.0560
     69  CG       -19.3040  -43.8610   23.3770 C.ar   38  TYR38      -0.0198
     70  CD1      -20.5470  -43.5030   23.9130 C.ar   38  TYR38      -0.0009
     71  CD2      -18.3780  -42.8810   23.2150 C.ar   38  TYR38      -0.0009
     72  CE1      -20.8410  -42.1770   24.2880 C.ar   38  TYR38       0.0417
     73  CE2      -18.6720  -41.5540   23.5420 C.ar   38  TYR38       0.0417
     74  CZ       -19.8880  -41.2080   24.0920 C.ar   38  TYR38       0.1957
     75  OH       -20.1240  -39.8700   24.4230 O.3    38  TYR38      -0.2866
     76  N        -22.6410  -45.8890   26.2380 N.3    45  SER45      -0.1203
     77  CA       -21.8680  -46.0510   27.4400 C.3    45  SER45       0.2005
     78  C        -22.3760  -47.2990   28.1800 C.2    45  SER45       0.2460
     79  O        -23.3600  -47.8900   27.7810 O.2    45  SER45      -0.2732
     80  CB       -22.0960  -44.8580   28.2850 C.3    45  SER45       0.2103
     81  OG       -23.4450  -44.8650   28.6980 O.3    45  SER45      -0.2182
     82  N        -21.6950  -47.7390   29.2230 N.am   46  PRO46      -0.2728
     83  CA       -22.1230  -48.9380   29.9260 C.3    46  PRO46       0.1401
     84  C        -23.4540  -48.6950   30.5810 C.2    46  PRO46       0.2269
     85  O        -23.7160  -47.5710   31.0730 O.2    46  PRO46      -0.2865
     86  CB       -21.0570  -49.0920   30.9750 C.3    46  PRO46       0.0296
     87  CG       -19.8980  -48.4320   30.4160 C.3    46  PRO46       0.0237
     88  CD       -20.4380  -47.2100   29.7670 C.3    46  PRO46       0.0939
     89  N        -22.7220  -52.6880   34.3660 N.3    51  TRP51      -0.1241
     90  CA       -21.9960  -52.4800   35.5740 C.3    51  TRP51       0.1605
     91  C        -22.1420  -53.6470   36.5690 C.2    51  TRP51       0.2264
     92  O        -21.2510  -53.9080   37.3870 O.2    51  TRP51      -0.2867
     93  CB       -22.4660  -51.2070   36.2280 C.3    51  TRP51       0.0550
     94  CG       -21.9260  -49.9790   35.5890 C.ar   51  TRP51       0.0003
     95  CD1      -22.6340  -49.0190   34.9160 C.ar   51  TRP51       0.0946
     96  CD2      -20.5750  -49.5320   35.6140 C.ar   51  TRP51       0.0152
     97  NE1      -21.7990  -48.0010   34.5280 N.ar   51  TRP51      -0.2442
     98  CE2      -20.5240  -48.3030   34.9400 C.ar   51  TRP51       0.0810
     99  CE3      -19.3920  -50.0410   36.1550 C.ar   51  TRP51       0.0012
    100  CZ2      -19.3400  -47.6010   34.7640 C.ar   51  TRP51       0.0191
    101  CZ3      -18.2160  -49.3250   35.9840 C.ar   51  TRP51       0.0001
    102  CH2      -18.2030  -48.1300   35.2910 C.ar   51  TRP51       0.0015
    103  N        -11.5080  -36.7050   28.6670 N.3    98  LYS98      -0.1245
    104  CA       -11.7140  -37.3170   29.9710 C.3    98  LYS98       0.1561
    105  C        -11.4910  -38.7810   29.7550 C.2    98  LYS98       0.2260
    106  O        -11.9720  -39.3150   28.7730 O.2    98  LYS98      -0.2867
    107  CB       -13.1770  -37.0850   30.3520 C.3    98  LYS98       0.0271
    108  CG       -13.5470  -37.2830   31.8170 C.3    98  LYS98       0.0035
    109  CD       -14.5310  -36.2030   32.3240 C.3    98  LYS98       0.0206
    110  CE       -15.8960  -36.7830   32.7060 C.3    98  LYS98       0.1093
    111  NZ       -17.0240  -36.2570   31.7890 N.3    98  LYS98      -0.1314
    112  N        -11.4340  -42.5910   32.0670 N.3   100  MET100     -0.1245
    113  CA       -11.7320  -43.2620   33.3050 C.3   100  MET100      0.1570
    114  C        -11.0330  -44.5720   33.1830 C.2   100  MET100      0.2261
    115  O        -10.9500  -45.1470   32.0930 O.2   100  MET100     -0.2867
    116  CB       -13.2310  -43.5180   33.4190 C.3   100  MET100      0.0387
    117  CG       -14.0730  -42.2950   33.2530 C.3   100  MET100      0.0595
    118  SD       -13.8140  -41.1760   34.6620 S.3   100  MET100     -0.1393
    119  CE       -15.2100  -39.9820   34.4230 C.3   100  MET100      0.0692
    120  N        -11.5640  -47.5070   33.9420 N.3   102  ASN102     -0.1225
    121  CA       -12.2980  -48.6520   33.4450 C.3   102  ASN102      0.1785
    122  C        -12.3910  -48.6460   31.9380 C.2   102  ASN102      0.2597
    123  O        -12.8630  -49.6040   31.3770 O.2   102  ASN102     -0.2718
    124  CB       -13.6970  -48.6860   34.0310 C.3   102  ASN102      0.1169
    125  CG       -14.6060  -47.6940   33.3860 C.2   102  ASN102      0.2627
    126  OD1      -14.5110  -46.5050   33.6550 O.2   102  ASN102     -0.2716
    127  ND2      -15.4830  -48.1690   32.5010 N.am  102  ASN102     -0.0877
    128  N        -11.9160  -47.5790   31.2940 N.am  103  GLN103     -0.1979
    129  CA       -12.0820  -47.3970   29.8570 C.3   103  GLN103      0.1601
    130  C        -10.7740  -47.5730   29.1210 C.2   103  GLN103      0.2287
    131  O        -10.7310  -47.5040   27.8750 O.2   103  GLN103     -0.2864
    132  CB       -12.5840  -45.9900   29.5790 C.3   103  GLN103      0.0394
    133  CG       -13.8780  -45.6210   30.2560 C.3   103  GLN103      0.0908
    134  CD       -14.2670  -44.1540   30.0870 C.2   103  GLN103      0.2608
    135  OE1      -15.4320  -43.7890   30.3290 O.2   103  GLN103     -0.2717
    136  NE2      -13.3070  -43.3060   29.7000 N.am  103  GLN103     -0.0878
    137  N        -26.0520  -38.6780   35.8080 N.3   160  TRP160     -0.1227
    138  CA       -24.7020  -38.6790   36.3720 C.3   160  TRP160      0.1737
    139  C        -24.1640  -37.3090   36.6740 C.2   160  TRP160      0.2595
    140  O        -22.9620  -37.1050   36.8440 O.2   160  TRP160     -0.2718
    141  CB       -23.7790  -39.3820   35.4360 C.3   160  TRP160      0.0564
    142  CG       -24.2160  -40.7020   35.2440 C.ar  160  TRP160      0.0003
    143  CD1      -25.2720  -41.1040   34.5070 C.ar  160  TRP160      0.0946
    144  CD2      -23.6690  -41.8510   35.8390 C.ar  160  TRP160      0.0152
    145  NE1      -25.4040  -42.4630   34.5900 N.ar  160  TRP160     -0.2442
    146  CE2      -24.4160  -42.9410   35.4060 C.ar  160  TRP160      0.0810
    147  CE3      -22.6000  -42.0770   36.7120 C.ar  160  TRP160      0.0012
    148  CZ2      -24.1310  -44.2260   35.7860 C.ar  160  TRP160      0.0191
    149  CZ3      -22.3020  -43.3640   37.0800 C.ar  160  TRP160      0.0001
    150  CH2      -23.0800  -44.4200   36.6350 C.ar  160  TRP160      0.0015
    151  N        -25.0840  -36.3620   36.7330 N.am  161  ARG161     -0.1980
    152  CA       -24.7650  -34.9810   37.0800 C.3   161  ARG161      0.1597
    153  C        -25.4730  -34.5170   38.3880 C.2   161  ARG161      0.2287
    154  O        -26.5080  -35.0670   38.7780 O.2   161  ARG161     -0.2864
    155  CB       -25.1110  -34.0400   35.9150 C.3   161  ARG161      0.0334
    156  CG       -23.9660  -33.8210   34.9670 C.3   161  ARG161      0.0492
    157  CD       -22.6050  -33.8590   35.6680 C.3   161  ARG161      0.2205
    158  NE       -22.2010  -32.5400   36.1230 N.pl3 161  ARG161     -0.0865
    159  CZ       -22.1150  -31.4780   35.3170 C.cat 161  ARG161      0.5346
    160  NH1      -22.4310  -31.5650   34.0060 N.pl3 161  ARG161      0.1354
    161  NH2      -21.7130  -30.3180   35.8210 N.pl3 161  ARG161      0.1354
@<TRIPOS>BOND
     1    68    69    1
     2    68    65    1
     3    71    69   ar
     4    71    73   ar
     5    69    70   ar
     6    67    66    2
     7    73    74   ar
     8    70    72   ar
     9    66    65    1
    10    74    72   ar
    11    74    75    1
    12    65    64    1
    13    42    43    1
    14    42    41    1
    15    64    57   am
    16    43    44    2
    17    43    45   am
    18    41    38    1
    19    49    48    2
    20    55    56    1
    21    76    77    1
    22    57    58    2
    23    57    56    1
    24    37    38    1
    25    48    47    1
    26    38    39    1
    27    40    39    2
    28    60    61    1
    29    60    59    1
    30    39    46   am
    31    56    59    1
    32    62    61    2
    33    77    78    1
    34    77    80    1
    35    46    47    1
    36    47    50    1
    37    79    78    2
    38    61    63   am
    39   131   130    2
    40    78    82   am
    41    80    81    1
    42   103   104    1
    43    50    51    1
    44   106   105    2
    45   130   129    1
    46    82    88    1
    47    82    83    1
    48   132   129    1
    49   132   133    1
    50   136   134   am
    51   105   104    1
    52    88    87    1
    53   129   128    1
    54    83    84    1
    55    83    86    1
    56   104   107    1
    57   134   133    1
    58   134   135    2
    59    51    52    1
    60    35    34   ar
    61   107   108    1
    62    87    86    1
    63    36    34   ar
    64    84    85    2
    65    34    33    1
    66    53    52   ar
    67    52    54   ar
    68   128   122   am
    69   123   122    2
    70   111   110    1
    71   108   109    1
    72    31    30    2
    73   122   121    1
    74   112   113    1
    75   115   114    2
    76   109   110    1
    77    29    30    1
    78    29    28    1
    79    29    32    1
    80   127   125   am
    81    33    32    1
    82   114   113    1
    83   117   116    1
    84   117   118    1
    85   113   116    1
    86   125   126    2
    87   125   124    1
    88   121   120    1
    89   121   124    1
    90   160   159    1
    91    89    90    1
    92   119   118    1
    93   143   145   ar
    94   143   142   ar
    95    97    95   ar
    96    97    98   ar
    97     9     7   am
    98   145   146   ar
    99   100    98   ar
   100   100   102   ar
   101    25    22    1
   102    25    27    1
   103    25    26    1
   104    24    23    2
   105    95    94   ar
   106    98    96   ar
   107   156   157    1
   108   156   155    1
   109    22    23    1
   110    22    21    1
   111   142   141    1
   112   142   144   ar
   113   102   101   ar
   114   159   161    1
   115   159   158    2
   116   146   148   ar
   117   146   144   ar
   118   141   138    1
   119    90    93    1
   120    90    91    1
   121    94    96   ar
   122    94    93    1
   123    96    99   ar
   124   157   158    1
   125     7     6    1
   126     7     8    2
   127   148   150   ar
   128   137   138    1
   129   144   147   ar
   130   155   152    1
   131     6     5    1
   132   101    99   ar
   133   138   139    1
   134    91    92    2
   135   150   149   ar
   136   139   151   am
   137   139   140    2
   138   147   149   ar
   139   151   152    1
   140   152   153    1
   141     5     2    1
   142     2     1    1
   143     2     3    1
   144   153   154    2
   145    10     3   am
   146    10    11    1
   147     3     4    2
   148    15    16    1
   149    15    14    1
   150    11    14    1
   151    11    12    1
   152    17    16    1
   153    17    18    2
   154    20    18    1
   155    18    19    1
   156    12    13    2
