@<TRIPOS>MOLECULE
tmp/1tezI00.pdb
 199 194 0 0 0
SMALL
GASTEIGER

@<TRIPOS>ATOM
      1  N         73.1400  -10.8920   21.4440 N.3   231  ARG231     -0.1231
      2  CA        71.9090  -10.1180   21.5900 C.3   231  ARG231      0.1694
      3  C         70.9670  -10.2510   20.3970 C.2   231  ARG231      0.2592
      4  O         69.7650  -10.0250   20.5260 O.2   231  ARG231     -0.2718
      5  CB        72.2470   -8.6410   21.7900 C.3   231  ARG231      0.0321
      6  CG        72.7150   -7.9050   20.5410 C.3   231  ARG231      0.0489
      7  CD        73.3370   -6.5780   20.9450 C.3   231  ARG231      0.2205
      8  NE        73.1200   -5.4760   20.0060 N.pl3 231  ARG231     -0.0865
      9  CZ        73.5530   -5.4480   18.7510 C.cat 231  ARG231      0.5346
     10  NH1       74.2280   -6.4660   18.2690 N.pl3 231  ARG231      0.1354
     11  NH2       73.3260   -4.3990   17.9780 N.pl3 231  ARG231      0.1354
     12  N         71.5130  -10.6260   19.2440 N.am  232  ASN232     -0.1974
     13  CA        70.7230  -10.7480   18.0180 C.3   232  ASN232      0.1688
     14  C         69.9210  -12.0350   17.8300 C.2   232  ASN232      0.2292
     15  O         69.0360  -12.0810   16.9790 O.2   232  ASN232     -0.2864
     16  CB        71.6320  -10.5890   16.7960 C.3   232  ASN232      0.1181
     17  CG        72.4310   -9.2950   16.8150 C.2   232  ASN232      0.2629
     18  OD1       71.8680   -8.2000   16.8190 O.2   232  ASN232     -0.2716
     19  ND2       73.7540   -9.4210   16.8160 N.am  232  ASN232     -0.0877
     20  N         72.5680    0.5030   24.6980 N.3   282  GLU282     -0.1245
     21  CA        71.1370    0.2090   24.7770 C.3   282  GLU282      0.1567
     22  C         70.5360    1.0690   25.8870 C.2   282  GLU282      0.2260
     23  O         69.4060    1.5550   25.7760 O.2   282  GLU282     -0.2867
     24  CB        70.9000   -1.2770   25.0740 C.3   282  GLU282      0.0388
     25  CG        71.3480   -2.2110   23.9660 C.3   282  GLU282      0.1160
     26  CD        70.7950   -1.8090   22.6130 C.2   282  GLU282      0.3649
     27  OE1       69.6080   -1.4220   22.5440 O.co2 282  GLU282     -0.2457
     28  OE2       71.5410   -1.8840   21.6150 O.co2 282  GLU282     -0.2457
     29  N         69.9240    4.2440   24.4390 N.3   285  TRP285     -0.1241
     30  CA        68.7680    4.2670   23.5400 C.3   285  TRP285      0.1605
     31  C         67.5280    4.5060   24.3720 C.2   285  TRP285      0.2264
     32  O         66.6050    5.2060   23.9470 O.2   285  TRP285     -0.2867
     33  CB        68.6240    2.9500   22.7800 C.3   285  TRP285      0.0550
     34  CG        69.3120    2.9490   21.4630 C.ar  285  TRP285      0.0003
     35  CD1       70.4660    2.2970   21.1350 C.ar  285  TRP285      0.0946
     36  CD2       68.8810    3.6260   20.2790 C.ar  285  TRP285      0.0152
     37  NE1       70.7760    2.5240   19.8130 N.ar  285  TRP285     -0.2442
     38  CE2       69.8200    3.3370   19.2660 C.ar  285  TRP285      0.0810
     39  CE3       67.7900    4.4520   19.9770 C.ar  285  TRP285      0.0012
     40  CZ2       69.7010    3.8420   17.9690 C.ar  285  TRP285      0.0191
     41  CZ3       67.6710    4.9540   18.6860 C.ar  285  TRP285      0.0001
     42  CH2       68.6230    4.6450   17.6980 C.ar  285  TRP285      0.0015
     43  N         64.9510    7.8060   23.7660 N.3   289  TYR289     -0.1241
     44  CA        63.5110    7.8110   23.5840 C.3   289  TYR289      0.1605
     45  C         62.7720    8.5160   24.7020 C.2   289  TYR289      0.2264
     46  O         61.7430    9.1520   24.4600 O.2   289  TYR289     -0.2867
     47  CB        62.9930    6.3820   23.4400 C.3   289  TYR289      0.0534
     48  CG        63.3840    5.7360   22.1320 C.ar  289  TYR289     -0.0201
     49  CD1       63.0870    6.3520   20.9140 C.ar  289  TYR289     -0.0009
     50  CD2       64.0200    4.4940   22.1080 C.ar  289  TYR289     -0.0009
     51  CE1       63.4090    5.7420   19.7020 C.ar  289  TYR289      0.0417
     52  CE2       64.3460    3.8770   20.9000 C.ar  289  TYR289      0.0417
     53  CZ        64.0370    4.5040   19.7050 C.ar  289  TYR289      0.1957
     54  OH        64.3320    3.8830   18.5150 O.3   289  TYR289     -0.2866
     55  N         64.0020   -8.3680   21.4050 N.3   348  ASN348     -0.1225
     56  CA        64.0650   -7.1730   20.5760 C.3   348  ASN348      0.1785
     57  C         64.1230   -7.4390   19.0720 C.2   348  ASN348      0.2597
     58  O         63.4800   -6.7350   18.2950 O.2   348  ASN348     -0.2718
     59  CB        65.2580   -6.2980   20.9910 C.3   348  ASN348      0.1169
     60  CG        65.4220   -5.0840   20.0960 C.2   348  ASN348      0.2627
     61  OD1       66.3310   -5.0260   19.2710 O.2   348  ASN348     -0.2716
     62  ND2       64.5190   -4.1160   20.2340 N.am  348  ASN348     -0.0877
     63  N         64.8880   -8.4400   18.6550 N.am  349  ARG349     -0.1979
     64  CA        64.9850   -8.7480   17.2290 C.3   349  ARG349      0.1597
     65  C         63.5930   -9.0490   16.6860 C.2   349  ARG349      0.2287
     66  O         63.2220   -8.6040   15.6000 O.2   349  ARG349     -0.2864
     67  CB        65.9090   -9.9450   17.0060 C.3   349  ARG349      0.0334
     68  CG        65.9820  -10.4430   15.5670 C.3   349  ARG349      0.0492
     69  CD        66.2460   -9.3370   14.5490 C.3   349  ARG349      0.2205
     70  NE        67.4940   -8.6030   14.7870 N.pl3 349  ARG349     -0.0865
     71  CZ        68.0280   -7.7480   13.9190 C.cat 349  ARG349      0.5346
     72  NH1       67.4290   -7.5270   12.7560 N.pl3 349  ARG349      0.1354
     73  NH2       69.1500   -7.1000   14.2170 N.pl3 349  ARG349      0.1354
     74  N         61.2550   -6.0090   16.2700 N.3   352  MET352     -0.1245
     75  CA        61.4850   -5.3080   15.0110 C.3   352  MET352      0.1570
     76  C         60.8570   -6.0500   13.8440 C.2   352  MET352      0.2261
     77  O         60.2420   -5.4440   12.9590 O.2   352  MET352     -0.2867
     78  CB        62.9800   -5.1500   14.7520 C.3   352  MET352      0.0387
     79  CG        63.6500   -4.2230   15.7230 C.3   352  MET352      0.0595
     80  SD        65.3430   -3.9480   15.2120 S.3   352  MET352     -0.1393
     81  CE        66.0880   -5.4440   15.7960 C.3   352  MET352      0.0692
     82  N         60.0540    2.6210   19.3500 N.3   388  GLY388     -0.1225
     83  CA        60.2660    1.4380   18.5340 C.3   388  GLY388      0.1811
     84  C         59.3160    1.3500   17.3530 C.2   388  GLY388      0.2280
     85  O         59.7260    1.0370   16.2360 O.2   388  GLY388     -0.2866
     86  N         60.0600    3.9450   14.7120 N.3   391  TRP391     -0.1241
     87  CA        61.2750    3.5720   14.0010 C.3   391  TRP391      0.1605
     88  C         60.9220    2.5450   12.9240 C.2   391  TRP391      0.2264
     89  O         61.3820    2.6370   11.7840 O.2   391  TRP391     -0.2867
     90  CB        62.2990    2.9640   14.9590 C.3   391  TRP391      0.0550
     91  CG        63.6100    2.6760   14.2960 C.ar  391  TRP391      0.0003
     92  CD1       64.6770    3.5260   14.1760 C.ar  391  TRP391      0.0946
     93  CD2       63.9670    1.4830   13.5920 C.ar  391  TRP391      0.0152
     94  NE1       65.6720    2.9340   13.4380 N.ar  391  TRP391     -0.2442
     95  CE2       65.2630    1.6800   13.0650 C.ar  391  TRP391      0.0810
     96  CE3       63.3160    0.2660   13.3510 C.ar  391  TRP391      0.0012
     97  CZ2       65.9220    0.7040   12.3110 C.ar  391  TRP391      0.0191
     98  CZ3       63.9700   -0.7040   12.6010 C.ar  391  TRP391      0.0001
     99  CH2       65.2600   -0.4790   12.0890 C.ar  391  TRP391      0.0015
    100  N         62.5990    0.8150    5.9770 N.3   403  ARG403     -0.1231
    101  CA        63.1960   -0.3570    6.5940 C.3   403  ARG403      0.1694
    102  C         62.2740   -1.5530    6.4350 C.2   403  ARG403      0.2592
    103  O         61.6240   -1.9810    7.3890 O.2   403  ARG403     -0.2718
    104  CB        63.4530   -0.0800    8.0750 C.3   403  ARG403      0.0321
    105  CG        64.4460    1.0490    8.3160 C.3   403  ARG403      0.0489
    106  CD        64.0040    1.9550    9.4590 C.3   403  ARG403      0.2205
    107  NE        64.9470    3.0530    9.6710 N.pl3 403  ARG403     -0.0865
    108  CZ        64.7000    4.1200   10.4260 C.cat 403  ARG403      0.5346
    109  NH1       63.5320    4.2420   11.0450 N.pl3 403  ARG403      0.1354
    110  NH2       65.6210    5.0680   10.5620 N.pl3 403  ARG403      0.1354
    111  N         62.2210   -2.1020    5.2280 N.am  404  ILE404     -0.1966
    112  CA        61.3570   -3.2440    4.9940 C.3   404  ILE404      0.1727
    113  C         62.0810   -4.5580    5.2080 C.2   404  ILE404      0.2616
    114  O         62.7480   -5.0700    4.3090 O.2   404  ILE404     -0.2715
    115  CB        60.7620   -3.2270    3.5800 C.3   404  ILE404      0.0290
    116  CG1       59.9620   -1.9390    3.3720 C.3   404  ILE404      0.0022
    117  CG2       59.8490   -4.4380    3.3970 C.3   404  ILE404      0.0023
    118  CD1       59.2880   -1.8430    2.0230 C.3   404  ILE404      0.0001
    119  N         61.9430   -5.0990    6.4140 N.am  405  PHE405     -0.1960
    120  CA        62.5670   -6.3640    6.7610 C.3   405  PHE405      0.1771
    121  C         61.9990   -7.5020    5.9260 C.2   405  PHE405      0.2619
    122  O         60.8200   -7.5000    5.5650 O.2   405  PHE405     -0.2715
    123  CB        62.3230   -6.6910    8.2390 C.3   405  PHE405      0.0574
    124  CG        63.1350   -5.8670    9.1960 C.ar  405  PHE405     -0.0200
    125  CD1       63.3150   -4.5030    8.9920 C.ar  405  PHE405     -0.0042
    126  CD2       63.6950   -6.4540   10.3250 C.ar  405  PHE405     -0.0042
    127  CE1       64.0410   -3.7340    9.9010 C.ar  405  PHE405     -0.0003
    128  CE2       64.4200   -5.6970   11.2390 C.ar  405  PHE405     -0.0003
    129  CZ        64.5930   -4.3320   11.0250 C.ar  405  PHE405     -0.0000
    130  N         62.8490   -8.4740    5.6270 N.am  406  ASN406     -0.1972
    131  CA        62.4380   -9.6570    4.8830 C.3   406  ASN406      0.1688
    132  C         62.3990  -10.7490    5.9490 C.2   406  ASN406      0.2292
    133  O         63.4360  -11.1790    6.4370 O.2   406  ASN406     -0.2864
    134  CB        63.4690  -10.0120    3.8110 C.3   406  ASN406      0.1181
    135  CG        63.0740  -11.2390    3.0090 C.2   406  ASN406      0.2629
    136  OD1       62.7320  -12.2810    3.5730 O.2   406  ASN406     -0.2716
    137  ND2       63.1250  -11.1220    1.6870 N.am  406  ASN406     -0.0877
    138  N         64.7820  -13.6300    5.4460 N.3   409  SER409     -0.1202
    139  CA        66.1800  -13.2500    5.6230 C.3   409  SER409      0.2020
    140  C         66.4940  -13.1460    7.1060 C.2   409  SER409      0.2618
    141  O         67.5420  -13.6020    7.5670 O.2   409  SER409     -0.2717
    142  CB        66.4660  -11.8960    4.9810 C.3   409  SER409      0.2103
    143  OG        66.3980  -11.9690    3.5780 O.3   409  SER409     -0.2182
    144  N         65.5770  -12.5220    7.8380 N.am  410  GLN410     -0.1979
    145  CA        65.7270  -12.3340    9.2740 C.3   410  GLN410      0.1601
    146  C         65.8400  -13.6750    9.9850 C.2   410  GLN410      0.2287
    147  O         66.7400  -13.8830   10.7920 O.2   410  GLN410     -0.2864
    148  CB        64.5370  -11.5520    9.8240 C.3   410  GLN410      0.0394
    149  CG        64.5030  -10.0870    9.4150 C.3   410  GLN410      0.0908
    150  CD        65.6700   -9.2950    9.9860 C.2   410  GLN410      0.2608
    151  OE1       65.9560   -9.3740   11.1760 O.2   410  GLN410     -0.2717
    152  NE2       66.3420   -8.5220    9.1390 N.am  410  GLN410     -0.0878
    153  N         69.1330  -15.4510    9.2020 N.3   413  LYS413     -0.1231
    154  CA        70.2270  -14.7710    9.8780 C.3   413  LYS413      0.1693
    155  C         70.2550  -14.9510   11.3860 C.2   413  LYS413      0.2592
    156  O         71.2870  -15.2780   11.9710 O.2   413  LYS413     -0.2718
    157  CB        70.1580  -13.2740    9.5950 C.3   413  LYS413      0.0285
    158  CG        71.1640  -12.7440    8.6050 C.3   413  LYS413      0.0035
    159  CD        70.9400  -11.2410    8.4480 C.3   413  LYS413      0.0206
    160  CE        71.9500  -10.5830    7.5350 C.3   413  LYS413      0.1093
    161  NZ        71.6840   -9.1380    7.3780 N.3   413  LYS413     -0.1314
    162  N         69.1030  -14.7480   12.0070 N.am  414  PHE414     -0.1976
    163  CA        69.0180  -14.8000   13.4550 C.3   414  PHE414      0.1639
    164  C         68.3950  -16.0170   14.1290 C.2   414  PHE414      0.2290
    165  O         68.3480  -16.0820   15.3560 O.2   414  PHE414     -0.2864
    166  CB        68.3430  -13.5120   13.9240 C.3   414  PHE414      0.0560
    167  CG        69.0050  -12.2730   13.3780 C.ar  414  PHE414     -0.0200
    168  CD1       70.2960  -11.9260   13.7720 C.ar  414  PHE414     -0.0042
    169  CD2       68.3580  -11.4750   12.4380 C.ar  414  PHE414     -0.0042
    170  CE1       70.9360  -10.7960   13.2330 C.ar  414  PHE414     -0.0003
    171  CE2       68.9860  -10.3460   11.8920 C.ar  414  PHE414     -0.0003
    172  CZ        70.2800  -10.0070   12.2920 C.ar  414  PHE414     -0.0000
    173  N         55.1460  -11.5230    0.6330 N.3   456  HIS456     -0.1226
    174  CA        56.1030  -10.4730    0.9750 C.3   456  HIS456      0.1752
    175  C         56.5700   -9.5900   -0.1800 C.2   456  HIS456      0.2596
    176  O         56.4660   -8.3680   -0.1090 O.2   456  HIS456     -0.2718
    177  CB        57.3330  -11.0680    1.6670 C.3   456  HIS456      0.0759
    178  CG        58.3330  -10.0360    2.0860 C.ar  456  HIS456      0.0818
    179  ND1       58.0610   -9.0870    3.0490 N.ar  456  HIS456     -0.2268
    180  CD2       59.5760   -9.7600    1.6270 C.ar  456  HIS456      0.1154
    181  CE1       59.0930   -8.2690    3.1630 C.ar  456  HIS456      0.1986
    182  NE2       60.0260   -8.6560    2.3110 N.ar  456  HIS456     -0.2212
    183  N         57.0990  -10.1980   -1.2380 N.am  457  ASN457     -0.1974
    184  CA        57.5810   -9.4150   -2.3730 C.3   457  ASN457      0.1688
    185  C         56.5050   -8.5320   -2.9800 C.2   457  ASN457      0.2292
    186  O         56.7580   -7.3760   -3.3150 O.2   457  ASN457     -0.2864
    187  CB        58.1650  -10.3220   -3.4570 C.3   457  ASN457      0.1181
    188  CG        59.4950  -10.9170   -3.0550 C.2   457  ASN457      0.2629
    189  OD1       60.2930  -10.2740   -2.3720 O.2   457  ASN457     -0.2716
    190  ND2       59.7510  -12.1450   -3.4880 N.am  457  ASN457     -0.0877
    191  N         55.6540   -5.7920   -0.5130 N.3   460  GLN460     -0.1245
    192  CA        56.7790   -4.8730   -0.4320 C.3   460  GLN460      0.1566
    193  C         56.6630   -3.8570   -1.5650 C.2   460  GLN460      0.2260
    194  O         56.8780   -2.6580   -1.3720 O.2   460  GLN460     -0.2867
    195  CB        58.0920   -5.6430   -0.5530 C.3   460  GLN460      0.0367
    196  CG        59.3330   -4.7970   -0.3540 C.3   460  GLN460      0.0905
    197  CD        60.6040   -5.6110   -0.4510 C.2   460  GLN460      0.2608
    198  OE1       61.6800   -5.1510   -0.0690 O.2   460  GLN460     -0.2717
    199  NE2       60.4890   -6.8290   -0.9700 N.am  460  GLN460     -0.0878
@<TRIPOS>BOND
     1   190   188   am
     2   187   188    1
     3   187   184    1
     4   186   185    2
     5   188   189    2
     6   185   184    1
     7   184   183    1
     8   193   194    2
     9   193   192    1
    10   183   175   am
    11   199   197   am
    12   195   192    1
    13   195   196    1
    14   191   192    1
    15   197   196    1
    16   197   198    2
    17   175   176    2
    18   175   174    1
    19   173   174    1
    20   174   177    1
    21   180   178   ar
    22   180   182   ar
    23   177   178    1
    24   137   135   am
    25   118   116    1
    26   178   179   ar
    27   182   181   ar
    28   135   136    2
    29   135   134    1
    30   179   181   ar
    31   116   115    1
    32   117   115    1
    33   143   142    1
    34   115   112    1
    35   134   131    1
    36   114   113    2
    37   131   130    1
    38   131   132    1
    39   142   139    1
    40   112   113    1
    41   112   111    1
    42   113   119   am
    43   111   102   am
    44   138   139    1
    45   122   121    2
    46   139   140    1
    47   130   121   am
    48   121   120    1
    49   132   133    2
    50   100   101    1
    51   119   120    1
    52   102   101    1
    53   102   103    2
    54   101   104    1
    55   120   123    1
    56   140   141    2
    57   140   144   am
    58   161   160    1
    59   160   159    1
    60   144   145    1
    61   104   105    1
    62   123   124    1
    63   105   106    1
    64   159   158    1
    65   158   157    1
    66   125   124   ar
    67   125   127   ar
    68   152   150   am
    69   124   126   ar
    70   153   154    1
    71   145   148    1
    72   145   146    1
    73   149   148    1
    74   149   150    1
    75   106   107    1
    76   157   154    1
    77   107   108    2
    78   154   155    1
    79   127   129   ar
    80   146   147    2
    81   150   151    2
    82   126   128   ar
    83   108   110    1
    84   108   109    1
    85   129   128   ar
    86   155   156    2
    87   155   162   am
    88    89    88    2
    89   171   172   ar
    90   171   169   ar
    91   162   163    1
    92    99    97   ar
    93    99    98   ar
    94   172   170   ar
    95    97    95   ar
    96   169   167   ar
    97    98    96   ar
    98    72    71    1
    99    88    87    1
   100    77    76    2
   101    95    94   ar
   102    95    93   ar
   103   170   168   ar
   104    96    93   ar
   105   167   168   ar
   106   167   166    1
   107    94    92   ar
   108   163   166    1
   109   163   164    1
   110    93    91   ar
   111    76    75    1
   112    71    73    1
   113    71    70    2
   114    87    86    1
   115    87    90    1
   116   164   165    2
   117    92    91   ar
   118    91    90    1
   119    69    70    1
   120    69    68    1
   121    78    75    1
   122    78    79    1
   123    75    74    1
   124    80    79    1
   125    80    81    1
   126    68    67    1
   127    66    65    2
   128    85    84    2
   129    65    64    1
   130    16    17    1
   131    16    13    1
   132    17    19   am
   133    17    18    2
   134    15    14    2
   135    67    64    1
   136    64    63    1
   137    84    83    1
   138    42    40   ar
   139    42    41   ar
   140    14    13    1
   141    40    38   ar
   142    11     9    1
   143    13    12    1
   144    10     9    1
   145    58    57    2
   146    54    53    1
   147    83    82    1
   148    63    57   am
   149    41    39   ar
   150     9     8    2
   151    57    56    1
   152    12     3   am
   153    38    37   ar
   154    38    36   ar
   155    61    60    2
   156    51    53   ar
   157    51    49   ar
   158    53    52   ar
   159    37    35   ar
   160    39    36   ar
   161     8     7    1
   162    60    62   am
   163    60    59    1
   164    36    34   ar
   165     3     4    2
   166     3     2    1
   167     6     7    1
   168     6     5    1
   169    56    59    1
   170    56    55    1
   171    52    50   ar
   172    49    48   ar
   173    35    34   ar
   174     1     2    1
   175    34    33    1
   176     2     5    1
   177    28    26   ar
   178    50    48   ar
   179    48    47    1
   180    27    26   ar
   181    26    25    1
   182    33    30    1
   183    47    44    1
   184    30    31    1
   185    30    29    1
   186    44    43    1
   187    44    45    1
   188    32    31    2
   189    25    24    1
   190    46    45    2
   191    20    21    1
   192    21    24    1
   193    21    22    1
   194    23    22    2
