@<TRIPOS>MOLECULE
tmp/1tfqA00.pdb
 107 106 0 0 0
SMALL
GASTEIGER

@<TRIPOS>ATOM
      1  N          3.1870  -13.9480   -1.0140 N.3    58  LYS58      -0.1231
      2  CA         3.3040  -13.4390    0.3530 C.3    58  LYS58       0.1693
      3  C          3.9660  -12.0620    0.3770 C.2    58  LYS58       0.2592
      4  O          5.1890  -11.9370    0.2710 O.2    58  LYS58      -0.2718
      5  CB         4.0970  -14.4270    1.2120 C.3    58  LYS58       0.0285
      6  CG         4.6200  -13.8410    2.5140 C.3    58  LYS58       0.0035
      7  CD         5.1430  -14.9310    3.4350 C.3    58  LYS58       0.0206
      8  CE         4.7810  -14.6610    4.8850 C.3    58  LYS58       0.1093
      9  NZ         5.6840  -15.3800    5.8260 N.3    58  LYS58      -0.1314
     10  N          3.1330  -11.0330    0.5080 N.am   59  VAL59      -0.1966
     11  CA         3.5990   -9.6520    0.5410 C.3    59  VAL59       0.1727
     12  C          2.9530   -8.9010    1.6980 C.2    59  VAL59       0.2616
     13  O          1.7750   -9.1090    1.9920 O.2    59  VAL59      -0.2715
     14  CB         3.2830   -8.9210   -0.7810 C.3    59  VAL59       0.0290
     15  CG1        1.8330   -9.1340   -1.1930 C.3    59  VAL59       0.0023
     16  CG2        3.5870   -7.4410   -0.6560 C.3    59  VAL59       0.0023
     17  N          3.7290   -8.0400    2.3580 N.am   60  LYS60      -0.1977
     18  CA         3.2270   -7.2700    3.4970 C.3    60  LYS60       0.1596
     19  C          3.3190   -5.7650    3.2470 C.2    60  LYS60       0.2287
     20  O          4.1220   -5.3030    2.4340 O.2    60  LYS60      -0.2864
     21  CB         4.0070   -7.6370    4.7610 C.3    60  LYS60       0.0298
     22  CG         3.8070   -9.0790    5.2050 C.3    60  LYS60       0.0038
     23  CD         4.3780   -9.3190    6.5930 C.3    60  LYS60       0.0206
     24  CE         3.3030   -9.2200    7.6630 C.3    60  LYS60       0.1093
     25  NZ         3.7430   -9.8240    8.9510 N.3    60  LYS60      -0.1314
     26  N         -0.3900   -8.1910    6.6920 N.3    67  GLY67      -0.1210
     27  CA         0.1200   -8.9680    5.5810 C.3    67  GLY67       0.1956
     28  C         -0.9680   -9.3890    4.6140 C.2    67  GLY67       0.2612
     29  O         -1.9950   -9.9300    5.0250 O.2    67  GLY67      -0.2717
     30  N         -0.7370   -9.1440    3.3280 N.am   68  LEU68      -0.1965
     31  CA        -1.6950   -9.5010    2.2880 C.3    68  LEU68       0.1728
     32  C         -1.2300  -10.7360    1.5230 C.2    68  LEU68       0.2617
     33  O         -0.0660  -10.8370    1.1310 O.2    68  LEU68      -0.2715
     34  CB        -1.8860   -8.3310    1.3200 C.3    68  LEU68       0.0311
     35  CG        -2.9790   -7.3360    1.7150 C.3    68  LEU68       0.0022
     36  CD1       -4.3540   -7.9730    1.5810 C.3    68  LEU68       0.0001
     37  CD2       -2.7560   -6.8370    3.1340 C.3    68  LEU68       0.0001
     38  N         -2.1500  -11.6710    1.3110 N.am   69  THR69      -0.1937
     39  CA        -1.8440  -12.9010    0.5910 C.3    69  THR69       0.2028
     40  C         -3.0640  -13.3910   -0.1840 C.2    69  THR69       0.2642
     41  O         -4.2010  -13.1080    0.1910 O.2    69  THR69      -0.2714
     42  CB        -1.3660  -14.0110    1.5470 C.3    69  THR69       0.1808
     43  OG1       -1.0950  -15.2090    0.8100 O.3    69  THR69      -0.2208
     44  CG2       -2.4100  -14.2930    2.6170 C.3    69  THR69       0.0379
     45  N         -2.8230  -14.1190   -1.2690 N.am   70  ASP70      -0.1957
     46  CA        -3.9080  -14.6350   -2.0960 C.3    70  ASP70       0.1840
     47  C         -4.7440  -13.4880   -2.6530 C.2    70  ASP70       0.2622
     48  O         -5.9160  -13.3350   -2.3080 O.2    70  ASP70      -0.2715
     49  CB        -4.7930  -15.5830   -1.2850 C.3    70  ASP70       0.1450
     50  CG        -5.6570  -16.4620   -2.1670 C.2    70  ASP70       0.3671
     51  OD1       -5.0940  -17.2780   -2.9270 O.co2  70  ASP70      -0.2456
     52  OD2       -6.8980  -16.3340   -2.0990 O.co2  70  ASP70      -0.2456
     53  N         -4.1270  -12.6790   -3.5070 N.am   71  TRP71      -0.1960
     54  CA        -4.8040  -11.5340   -4.1070 C.3    71  TRP71       0.1771
     55  C         -5.9960  -11.9680   -4.9520 C.2    71  TRP71       0.2619
     56  O         -6.2290  -13.1600   -5.1540 O.2    71  TRP71      -0.2715
     57  CB        -3.8260  -10.7320   -4.9650 C.3    71  TRP71       0.0590
     58  CG        -3.0610   -9.7090   -4.1850 C.ar   71  TRP71       0.0006
     59  CD1       -1.8670   -9.8880   -3.5480 C.ar   71  TRP71       0.0946
     60  CD2       -3.4410   -8.3480   -3.9530 C.ar   71  TRP71       0.0152
     61  NE1       -1.4800   -8.7220   -2.9350 N.ar   71  TRP71      -0.2442
     62  CE2       -2.4290   -7.7610   -3.1690 C.ar   71  TRP71       0.0810
     63  CE3       -4.5370   -7.5660   -4.3330 C.ar   71  TRP71       0.0012
     64  CZ2       -2.4810   -6.4330   -2.7590 C.ar   71  TRP71       0.0191
     65  CZ3       -4.5870   -6.2470   -3.9250 C.ar   71  TRP71       0.0001
     66  CH2       -3.5640   -5.6920   -3.1450 C.ar   71  TRP71       0.0015
     67  N         -6.7430  -10.9800   -5.4390 N.am   72  LYS72      -0.1977
     68  CA        -7.9200  -11.2240   -6.2680 C.3    72  LYS72       0.1596
     69  C         -7.7030  -10.6420   -7.6710 C.2    72  LYS72       0.2287
     70  O         -7.1320   -9.5590   -7.7980 O.2    72  LYS72      -0.2864
     71  CB        -9.1450  -10.5690   -5.6190 C.3    72  LYS72       0.0298
     72  CG       -10.4540  -11.2890   -5.8950 C.3    72  LYS72       0.0038
     73  CD       -11.6060  -10.6650   -5.1230 C.3    72  LYS72       0.0206
     74  CE       -12.8930  -11.4540   -5.3090 C.3    72  LYS72       0.1093
     75  NZ       -13.5390  -11.7770   -4.0070 N.3    72  LYS72      -0.1314
     76  N         -7.4880   -5.8610   -9.1760 N.3    75  GLU75      -0.1245
     77  CA        -7.6460   -5.1750   -7.8980 C.3    75  GLU75       0.1567
     78  C         -6.5110   -4.1830   -7.6740 C.2    75  GLU75       0.2260
     79  O         -5.3550   -4.4690   -7.9880 O.2    75  GLU75      -0.2867
     80  CB        -7.6860   -6.1880   -6.7520 C.3    75  GLU75       0.0388
     81  CG        -9.0870   -6.6760   -6.4210 C.3    75  GLU75       0.1160
     82  CD        -9.2420   -7.0580   -4.9620 C.2    75  GLU75       0.3649
     83  OE1       -8.3290   -7.7160   -4.4200 O.co2  75  GLU75      -0.2457
     84  OE2      -10.2770   -6.7000   -4.3610 O.co2  75  GLU75      -0.2457
     85  N         -7.5510   -1.5590   -1.7890 N.3    80  GLN80      -0.1245
     86  CA        -7.4200   -2.7910   -1.0150 C.3    80  GLN80       0.1566
     87  C         -6.9160   -2.5240    0.4030 C.2    80  GLN80       0.2260
     88  O         -7.6360   -2.7490    1.3760 O.2    80  GLN80      -0.2867
     89  CB        -6.4800   -3.7700   -1.7220 C.3    80  GLN80       0.0367
     90  CG        -6.2880   -5.0750   -0.9660 C.3    80  GLN80       0.0905
     91  CD        -7.6020   -5.7510   -0.6270 C.2    80  GLN80       0.2608
     92  OE1       -8.2560   -5.4060    0.3560 O.2    80  GLN80      -0.2717
     93  NE2       -7.9960   -6.7220   -1.4440 N.am   80  GLN80      -0.0878
     94  N         -8.7990   -2.7570    4.3450 N.3    84  TRP84      -0.1241
     95  CA        -8.3490   -3.6880    5.3780 C.3    84  TRP84       0.1605
     96  C         -7.7750   -2.9570    6.5920 C.2    84  TRP84       0.2264
     97  O         -8.0970   -3.2860    7.7330 O.2    84  TRP84      -0.2867
     98  CB        -7.2980   -4.6420    4.8060 C.3    84  TRP84       0.0550
     99  CG        -7.8620   -5.9600    4.3670 C.ar   84  TRP84       0.0003
    100  CD1       -7.7000   -6.5550    3.1480 C.ar   84  TRP84       0.0946
    101  CD2       -8.6770   -6.8470    5.1410 C.ar   84  TRP84       0.0152
    102  NE1       -8.3640   -7.7580    3.1180 N.ar   84  TRP84      -0.2442
    103  CE2       -8.9720   -7.9590    4.3290 C.ar   84  TRP84       0.0810
    104  CE3       -9.1860   -6.8110    6.4430 C.ar   84  TRP84       0.0012
    105  CZ2       -9.7520   -9.0220    4.7770 C.ar   84  TRP84       0.0191
    106  CZ3       -9.9600   -7.8670    6.8860 C.ar   84  TRP84       0.0001
    107  CH2      -10.2370   -8.9600    6.0550 C.ar   84  TRP84       0.0015
@<TRIPOS>BOND
     1    76    77    1
     2    79    78    2
     3    77    78    1
     4    77    80    1
     5    70    69    2
     6    69    68    1
     7    80    81    1
     8    81    82    1
     9    68    71    1
    10    68    67    1
    11    72    71    1
    12    72    73    1
    13    67    55   am
    14    74    73    1
    15    74    75    1
    16    56    55    2
    17    57    58    1
    18    57    54    1
    19    82    83   ar
    20    82    84   ar
    21    55    54    1
    22    63    60   ar
    23    63    65   ar
    24    58    60   ar
    25    58    59   ar
    26    54    53    1
    27    60    62   ar
    28    65    66   ar
    29    59    61   ar
    30    53    47   am
    31    62    61   ar
    32    62    64   ar
    33    66    64   ar
    34    51    50   ar
    35    47    48    2
    36    47    46    1
    37    50    52   ar
    38    50    49    1
    39    46    49    1
    40    46    45    1
    41    85    86    1
    42    89    86    1
    43    89    90    1
    44    93    91   am
    45    45    40   am
    46    15    14    1
    47    86    87    1
    48     1     2    1
    49    90    91    1
    50    14    16    1
    51    14    11    1
    52    91    92    2
    53    40    41    2
    54    40    39    1
    55     4     3    2
    56     2     3    1
    57     2     5    1
    58     3    10   am
    59    87    88    2
    60    10    11    1
    61    11    12    1
    62    39    38    1
    63    39    42    1
    64    43    42    1
    65    33    32    2
    66     5     6    1
    67    38    32   am
    68    34    35    1
    69    34    31    1
    70    32    31    1
    71    42    44    1
    72    36    35    1
    73    12    13    2
    74    12    17   am
    75    35    37    1
    76    31    30    1
    77    17    18    1
    78    20    19    2
    79     6     7    1
    80   102   100   ar
    81   102   103   ar
    82   100    99   ar
    83    19    18    1
    84    30    28   am
    85     7     8    1
    86    18    21    1
    87   103   105   ar
    88   103   101   ar
    89    94    95    1
    90    99    98    1
    91    99   101   ar
    92    28    29    2
    93    28    27    1
    94    21    22    1
    95   105   107   ar
    96    98    95    1
    97     8     9    1
    98   101   104   ar
    99    22    23    1
   100    95    96    1
   101    27    26    1
   102   107   106   ar
   103   104   106   ar
   104    96    97    2
   105    23    24    1
   106    24    25    1
