@<TRIPOS>MOLECULE
tmp/1tftA00.pdb
 127 126 0 0 0
SMALL
GASTEIGER

@<TRIPOS>ATOM
      1  N          7.8120  -11.3430    0.7440 N.3    53  LEU53      -0.1245
      2  CA         8.7300  -11.9200    1.7260 C.3    53  LEU53       0.1561
      3  C          9.3960  -13.1930    1.2010 C.2    53  LEU53       0.2260
      4  O          9.6240  -14.1350    1.9610 O.2    53  LEU53      -0.2867
      5  CB         7.9830  -12.2340    3.0250 C.3    53  LEU53       0.0270
      6  CG         7.0650  -11.1230    3.5390 C.3    53  LEU53       0.0019
      7  CD1        6.1730  -11.6420    4.6560 C.3    53  LEU53       0.0001
      8  CD2        7.8860   -9.9360    4.0190 C.3    53  LEU53       0.0001
      9  N          2.5830  -14.1170   -0.8370 N.3    58  LYS58      -0.1231
     10  CA         2.7040  -13.6110    0.5280 C.3    58  LYS58       0.1693
     11  C          3.4430  -12.2740    0.5400 C.2    58  LYS58       0.2592
     12  O          4.6700  -12.2260    0.4330 O.2    58  LYS58      -0.2718
     13  CB         3.4300  -14.6300    1.4100 C.3    58  LYS58       0.0285
     14  CG         4.0450  -14.0290    2.6640 C.3    58  LYS58       0.0035
     15  CD         4.3590  -15.0970    3.7000 C.3    58  LYS58       0.0206
     16  CE         3.0920  -15.6690    4.3160 C.3    58  LYS58       0.1093
     17  NZ         3.1980  -15.7860    5.7960 N.3    58  LYS58      -0.1314
     18  N          2.6750  -11.1940    0.6560 N.am   59  VAL59      -0.1966
     19  CA         3.2310   -9.8430    0.6690 C.3    59  VAL59       0.1727
     20  C          2.6260   -9.0220    1.8020 C.2    59  VAL59       0.2616
     21  O          1.4410   -9.1610    2.1070 O.2    59  VAL59      -0.2715
     22  CB         2.9890   -9.1220   -0.6760 C.3    59  VAL59       0.0290
     23  CG1        1.5510   -9.2920   -1.1460 C.3    59  VAL59       0.0023
     24  CG2        3.3350   -7.6490   -0.5650 C.3    59  VAL59       0.0023
     25  N          3.4490   -8.1780    2.4300 N.am   60  LYS60      -0.1977
     26  CA         2.9930   -7.3450    3.5440 C.3    60  LYS60       0.1596
     27  C          3.2750   -5.8640    3.2980 C.2    60  LYS60       0.2287
     28  O          4.1530   -5.5050    2.5120 O.2    60  LYS60      -0.2864
     29  CB         3.6590   -7.8010    4.8430 C.3    60  LYS60       0.0298
     30  CG         3.1610   -9.1560    5.3300 C.3    60  LYS60       0.0038
     31  CD         2.8700   -9.1630    6.8250 C.3    60  LYS60       0.0206
     32  CE         4.0600   -9.6760    7.6180 C.3    60  LYS60       0.1093
     33  NZ         5.0740   -8.6110    7.8500 N.3    60  LYS60      -0.1314
     34  N         -0.7590   -7.9220    6.7570 N.3    67  GLY67      -0.1210
     35  CA        -0.3550   -8.7860    5.6650 C.3    67  GLY67       0.1956
     36  C         -1.4750   -9.0360    4.6750 C.2    67  GLY67       0.2612
     37  O         -2.6420   -9.1180    5.0580 O.2    67  GLY67      -0.2717
     38  N         -1.1120   -9.1560    3.3990 N.am   68  LEU68      -0.1965
     39  CA        -2.0820   -9.3990    2.3350 C.3    68  LEU68       0.1728
     40  C         -1.7030  -10.6370    1.5270 C.2    68  LEU68       0.2617
     41  O         -0.5390  -10.8290    1.1680 O.2    68  LEU68      -0.2715
     42  CB        -2.1710   -8.1820    1.4110 C.3    68  LEU68       0.0311
     43  CG        -3.2170   -7.1380    1.8090 C.3    68  LEU68       0.0022
     44  CD1       -4.6190   -7.7210    1.7130 C.3    68  LEU68       0.0001
     45  CD2       -2.9480   -6.6200    3.2140 C.3    68  LEU68       0.0001
     46  N         -2.6970  -11.4730    1.2440 N.am   69  THR69      -0.1937
     47  CA        -2.4810  -12.6940    0.4790 C.3    69  THR69       0.2028
     48  C         -3.7430  -13.0820   -0.2870 C.2    69  THR69       0.2642
     49  O         -4.8380  -12.6200    0.0320 O.2    69  THR69      -0.2714
     50  CB        -2.0580  -13.8600    1.3930 C.3    69  THR69       0.1808
     51  OG1       -1.8260  -15.0380    0.6110 O.3    69  THR69      -0.2208
     52  CG2       -3.1270  -14.1430    2.4390 C.3    69  THR69       0.0379
     53  N         -3.5850  -13.9250   -1.3040 N.am   70  ASP70      -0.1957
     54  CA        -4.7160  -14.3620   -2.1170 C.3    70  ASP70       0.1840
     55  C         -5.4020  -13.1630   -2.7660 C.2    70  ASP70       0.2622
     56  O         -6.5800  -12.9000   -2.5240 O.2    70  ASP70      -0.2715
     57  CB        -5.7190  -15.1380   -1.2610 C.3    70  ASP70       0.1450
     58  CG        -6.7390  -15.8840   -2.0980 C.2    70  ASP70       0.3671
     59  OD1       -6.3540  -16.4390   -3.1480 O.co2  70  ASP70      -0.2456
     60  OD2       -7.9230  -15.9150   -1.7020 O.co2  70  ASP70      -0.2456
     61  N         -4.6480  -12.4320   -3.5800 N.am   71  TRP71      -0.1960
     62  CA        -5.1680  -11.2480   -4.2540 C.3    71  TRP71       0.1771
     63  C         -6.3580  -11.5810   -5.1480 C.2    71  TRP71       0.2619
     64  O         -6.6250  -12.7450   -5.4450 O.2    71  TRP71      -0.2715
     65  CB        -4.0650  -10.5850   -5.0810 C.3    71  TRP71       0.0590
     66  CG        -3.2500   -9.6080   -4.2930 C.ar   71  TRP71       0.0006
     67  CD1       -2.0390   -9.8370   -3.7060 C.ar   71  TRP71       0.0946
     68  CD2       -3.5890   -8.2480   -4.0000 C.ar   71  TRP71       0.0152
     69  NE1       -1.6050   -8.7040   -3.0640 N.ar   71  TRP71      -0.2442
     70  CE2       -2.5380   -7.7140   -3.2300 C.ar   71  TRP71       0.0810
     71  CE3       -4.6790   -7.4290   -4.3140 C.ar   71  TRP71       0.0012
     72  CZ2       -2.5460   -6.4010   -2.7690 C.ar   71  TRP71       0.0191
     73  CZ3       -4.6840   -6.1260   -3.8550 C.ar   71  TRP71       0.0001
     74  CH2       -3.6240   -5.6230   -3.0910 C.ar   71  TRP71       0.0015
     75  N         -7.0650  -10.5380   -5.5720 N.am   72  LYS72      -0.1977
     76  CA        -8.2310  -10.6870   -6.4340 C.3    72  LYS72       0.1596
     77  C         -7.8200  -10.4900   -7.9000 C.2    72  LYS72       0.2287
     78  O         -6.8840   -9.7380   -8.1720 O.2    72  LYS72      -0.2864
     79  CB        -9.2880   -9.6520   -6.0320 C.3    72  LYS72       0.0298
     80  CG       -10.7220  -10.1030   -6.2580 C.3    72  LYS72       0.0038
     81  CD       -11.6950   -9.3850   -5.3340 C.3    72  LYS72       0.0206
     82  CE       -12.6110  -10.3660   -4.6200 C.3    72  LYS72       0.1093
     83  NZ       -13.4590   -9.6920   -3.5980 N.3    72  LYS72      -0.1314
     84  N         -7.8890   -5.8890   -8.8350 N.3    75  GLU75      -0.1245
     85  CA        -7.9250   -5.0160   -7.6650 C.3    75  GLU75       0.1567
     86  C         -6.6840   -4.1340   -7.5960 C.2    75  GLU75       0.2260
     87  O         -5.6320   -4.4850   -8.1330 O.2    75  GLU75      -0.2867
     88  CB        -8.0420   -5.8450   -6.3840 C.3    75  GLU75       0.0388
     89  CG        -9.4770   -6.1080   -5.9540 C.3    75  GLU75       0.1160
     90  CD        -9.5690   -6.6930   -4.5590 C.2    75  GLU75       0.3649
     91  OE1       -8.5620   -7.2610   -4.0860 O.co2  75  GLU75      -0.2457
     92  OE2      -10.6480   -6.5830   -3.9390 O.co2  75  GLU75      -0.2457
     93  N         -7.2010   -1.6290   -1.5500 N.3    80  GLN80      -0.1245
     94  CA        -7.0320   -2.7800   -0.6650 C.3    80  GLN80       0.1566
     95  C         -6.4980   -2.3740    0.7080 C.2    80  GLN80       0.2260
     96  O         -7.1670   -2.5720    1.7220 O.2    80  GLN80      -0.2867
     97  CB        -6.0980   -3.8120   -1.3020 C.3    80  GLN80       0.0367
     98  CG        -6.5390   -5.2480   -1.0710 C.3    80  GLN80       0.0905
     99  CD        -7.8490   -5.5700   -1.7620 C.2    80  GLN80       0.2608
    100  OE1       -8.2510   -4.8840   -2.7010 O.2    80  GLN80      -0.2717
    101  NE2       -8.5240   -6.6130   -1.2960 N.am   80  GLN80      -0.0878
    102  N         -8.5970   -2.3000    4.3990 N.3    84  TRP84      -0.1227
    103  CA        -8.2830   -3.2020    5.5060 C.3    84  TRP84       0.1737
    104  C         -7.6640   -2.4620    6.6930 C.2    84  TRP84       0.2595
    105  O         -8.0560   -2.6790    7.8390 O.2    84  TRP84      -0.2718
    106  CB        -7.3360   -4.3090    5.0370 C.3    84  TRP84       0.0564
    107  CG        -8.0280   -5.4280    4.3160 C.ar   84  TRP84       0.0003
    108  CD1       -7.7230   -5.9150    3.0760 C.ar   84  TRP84       0.0946
    109  CD2       -9.1380   -6.2030    4.7880 C.ar   84  TRP84       0.0152
    110  NE1       -8.5740   -6.9430    2.7490 N.ar   84  TRP84      -0.2442
    111  CE2       -9.4520   -7.1390    3.7830 C.ar   84  TRP84       0.0810
    112  CE3       -9.8970   -6.1990    5.9630 C.ar   84  TRP84       0.0012
    113  CZ2      -10.4900   -8.0570    3.9180 C.ar   84  TRP84       0.0191
    114  CZ3      -10.9270   -7.1110    6.0940 C.ar   84  TRP84       0.0001
    115  CH2      -11.2150   -8.0290    5.0770 C.ar   84  TRP84       0.0015
    116  N         -6.6910   -1.6000    6.4170 N.am   85  TYR85      -0.1976
    117  CA        -6.0170   -0.8460    7.4710 C.3    85  TYR85       0.1639
    118  C         -5.3780    0.4300    6.9170 C.2    85  TYR85       0.2290
    119  O         -4.1910    0.4390    6.5900 O.2    85  TYR85      -0.2864
    120  CB        -4.9400   -1.7130    8.1240 C.3    85  TYR85       0.0560
    121  CG        -5.4620   -2.5950    9.2360 C.ar   85  TYR85      -0.0198
    122  CD1       -5.9190   -2.0450   10.4280 C.ar   85  TYR85      -0.0009
    123  CD2       -5.4980   -3.9760    9.0950 C.ar   85  TYR85      -0.0009
    124  CE1       -6.3970   -2.8480   11.4470 C.ar   85  TYR85       0.0417
    125  CE2       -5.9750   -4.7850   10.1080 C.ar   85  TYR85       0.0417
    126  CZ        -6.4230   -4.2160   11.2820 C.ar   85  TYR85       0.1957
    127  OH        -6.8980   -5.0190   12.2930 O.3    85  TYR85      -0.2866
@<TRIPOS>BOND
     1    84    85    1
     2    78    77    2
     3    87    86    2
     4    77    76    1
     5    85    86    1
     6    85    88    1
     7    76    79    1
     8    76    75    1
     9    88    89    1
    10    80    79    1
    11    80    81    1
    12    89    90    1
    13    75    63   am
    14    64    63    2
    15    81    82    1
    16    63    62    1
    17    65    66    1
    18    65    62    1
    19    82    83    1
    20    90    91   ar
    21    90    92   ar
    22    71    68   ar
    23    71    73   ar
    24    66    68   ar
    25    66    67   ar
    26    62    61    1
    27    68    70   ar
    28    73    74   ar
    29    67    69   ar
    30    61    55   am
    31    70    69   ar
    32    70    72   ar
    33    59    58   ar
    34    74    72   ar
    35    55    56    2
    36    55    54    1
    37   100    99    2
    38    54    53    1
    39    54    57    1
    40    58    60   ar
    41    58    57    1
    42    99   101   am
    43    99    98    1
    44    93    94    1
    45    53    48   am
    46    97    98    1
    47    97    94    1
    48    23    22    1
    49     9    10    1
    50    22    24    1
    51    22    19    1
    52    94    95    1
    53    48    49    2
    54    48    47    1
    55    12    11    2
    56    47    46    1
    57    47    50    1
    58    10    11    1
    59    10    13    1
    60    11    18   am
    61    51    50    1
    62    18    19    1
    63    19    20    1
    64    95    96    2
    65     1     2    1
    66    41    40    2
    67     3     2    1
    68     3     4    2
    69    46    40   am
    70    50    52    1
    71    13    14    1
    72    42    43    1
    73    42    39    1
    74    40    39    1
    75    44    43    1
    76     2     5    1
    77    20    21    2
    78    20    25   am
    79    43    45    1
    80    39    38    1
    81    25    26    1
    82    28    27    2
    83    14    15    1
    84   110   108   ar
    85   110   111   ar
    86     5     6    1
    87   108   107   ar
    88    27    26    1
    89    38    36   am
    90     6     8    1
    91     6     7    1
    92    26    29    1
    93    15    16    1
    94   111   113   ar
    95   111   109   ar
    96   113   115   ar
    97    16    17    1
    98   107   109   ar
    99   107   106    1
   100   102   103    1
   101    36    37    2
   102    36    35    1
   103   109   112   ar
   104    29    30    1
   105   106   103    1
   106   115   114   ar
   107    30    31    1
   108   103   104    1
   109    35    34    1
   110   112   114   ar
   111   116   104   am
   112   116   117    1
   113   119   118    2
   114   104   105    2
   115    31    32    1
   116   118   117    1
   117   117   120    1
   118    32    33    1
   119   120   121    1
   120   123   121   ar
   121   123   125   ar
   122   121   122   ar
   123   125   126   ar
   124   122   124   ar
   125   126   124   ar
   126   126   127    1
