@<TRIPOS>MOLECULE
tmp/1tfwJ00.pdb
 176 166 0 0 0
SMALL
GASTEIGER

@<TRIPOS>ATOM
      1  N         96.4290    4.5050   -4.3770 N.3    45  VAL45      -0.1231
      2  CA        95.7600    5.4310   -3.4610 C.3    45  VAL45       0.1692
      3  C         96.7570    6.0430   -2.4870 C.2    45  VAL45       0.2593
      4  O         97.9380    5.7080   -2.5030 O.2    45  VAL45      -0.2718
      5  CB        94.6130    4.7370   -2.6810 C.3    45  VAL45       0.0266
      6  CG1       93.4300    4.4550   -3.5990 C.3    45  VAL45       0.0020
      7  CG2       95.1000    3.4600   -2.0040 C.3    45  VAL45       0.0020
      8  N         96.2770    6.9680   -1.6620 N.am   46  GLY46      -0.1942
      9  CA        97.0750    7.5240   -0.5840 C.3    46  GLY46       0.2014
     10  C         98.0930    8.5560   -1.0200 C.2    46  GLY46       0.2639
     11  O         97.9960    9.1320   -2.1080 O.2    46  GLY46      -0.2714
     12  N         99.0940    8.7490   -0.1680 N.am   47  SER47      -0.1949
     13  CA       100.0260    9.8670   -0.2650 C.3    47  SER47       0.1924
     14  C        100.8310    9.9350   -1.5590 C.2    47  SER47       0.2314
     15  O        101.0640   11.0290   -2.0730 O.2    47  SER47      -0.2863
     16  CB       101.0020    9.8160    0.9110 C.3    47  SER47       0.2116
     17  OG       101.7390   11.0140    1.0060 O.3    47  SER47      -0.2180
     18  N         98.7840   10.8650   -4.7510 N.3    50  ARG50      -0.1245
     19  CA        98.4360   12.2900   -4.7970 C.3    50  ARG50       0.1563
     20  C         99.6110   13.2440   -4.5800 C.2    50  ARG50       0.2260
     21  O         99.3960   14.4460   -4.4250 O.2    50  ARG50      -0.2867
     22  CB        97.3600   12.6050   -3.7660 C.3    50  ARG50       0.0307
     23  CG        96.1560   11.6990   -3.8380 C.3    50  ARG50       0.0489
     24  CD        95.0250   12.2450   -2.9930 C.3    50  ARG50       0.2205
     25  NE        94.3460   11.1820   -2.2580 N.pl3  50  ARG50      -0.0865
     26  CZ        94.8020   10.6100   -1.1500 C.cat  50  ARG50       0.5346
     27  NH1       95.9580   10.9890   -0.6160 N.pl3  50  ARG50       0.1354
     28  NH2       94.0970    9.6480   -0.5710 N.pl3  50  ARG50       0.1354
     29  N        103.4110   13.0280   -0.1750 N.3    53  TRP53      -0.1227
     30  CA       104.2670   12.3190    0.7880 C.3    53  TRP53       0.1737
     31  C        105.4000   13.2070    1.2750 C.2    53  TRP53       0.2595
     32  O        105.8640   14.0970    0.5630 O.2    53  TRP53      -0.2718
     33  CB       104.8190   11.0120    0.2110 C.3    53  TRP53       0.0564
     34  CG       105.9780   11.1900   -0.7330 C.ar   53  TRP53       0.0003
     35  CD1      107.3010   11.2810   -0.4020 C.ar   53  TRP53       0.0946
     36  CD2      105.9140   11.2910   -2.1570 C.ar   53  TRP53       0.0152
     37  NE1      108.0630   11.4370   -1.5280 N.ar   53  TRP53      -0.2442
     38  CE2      107.2390   11.4460   -2.6230 C.ar   53  TRP53       0.0810
     39  CE3      104.8660   11.2710   -3.0850 C.ar   53  TRP53       0.0012
     40  CZ2      107.5480   11.5750   -3.9790 C.ar   53  TRP53       0.0191
     41  CZ3      105.1690   11.4010   -4.4320 C.ar   53  TRP53       0.0001
     42  CH2      106.5020   11.5520   -4.8670 C.ar   53  TRP53       0.0015
     43  N        105.8400   12.9440    2.4990 N.am   54  LEU54      -0.1980
     44  CA       106.8230   13.7790    3.1650 C.3    54  LEU54       0.1596
     45  C        108.2340   13.3710    2.7360 C.2    54  LEU54       0.2287
     46  O        108.5270   12.1800    2.6040 O.2    54  LEU54      -0.2864
     47  CB       106.6480   13.6470    4.6820 C.3    54  LEU54       0.0297
     48  CG       107.2530   14.7480    5.5500 C.3    54  LEU54       0.0022
     49  CD1      106.5250   16.0630    5.3450 C.3    54  LEU54       0.0001
     50  CD2      107.2180   14.3380    7.0180 C.3    54  LEU54       0.0001
     51  N        109.8950    9.9610    3.4470 N.3    57  SER57      -0.1217
     52  CA       108.8600    9.0130    3.8600 C.3    57  SER57       0.1889
     53  C        108.1510    8.4440    2.6330 C.2    57  SER57       0.2288
     54  O        106.9260    8.5260    2.5110 O.2    57  SER57      -0.2866
     55  CB       107.8530    9.6810    4.8090 C.3    57  SER57       0.2089
     56  OG       108.3870    9.8280    6.1080 O.3    57  SER57      -0.2183
     57  N        106.4140    5.8670    0.4850 N.3    59  GLU59      -0.1245
     58  CA       105.6530    4.6330    0.6680 C.3    59  GLU59       0.1567
     59  C        104.4540    4.6420   -0.2650 C.2    59  GLU59       0.2260
     60  O        103.6880    5.6030   -0.2740 O.2    59  GLU59      -0.2867
     61  CB       105.2030    4.4880    2.1300 C.3    59  GLU59       0.0388
     62  CG       104.5500    3.1390    2.4830 C.3    59  GLU59       0.1160
     63  CD       103.0160    3.1460    2.4510 C.2    59  GLU59       0.3649
     64  OE1      102.3890    4.1560    2.0550 O.co2  59  GLU59      -0.2457
     65  OE2      102.4270    2.1190    2.8380 O.co2  59  GLU59      -0.2457
     66  N        100.8820    3.0300   -1.6010 N.3    61  ASP61      -0.1239
     67  CA        99.7150    2.2140   -1.2860 C.3    61  ASP61       0.1674
     68  C         99.0110    1.7630   -2.5690 C.2    61  ASP61       0.2266
     69  O         98.5740    2.5950   -3.3750 O.2    61  ASP61      -0.2867
     70  CB        98.7330    3.0110   -0.4180 C.3    61  ASP61       0.1410
     71  CG        99.3820    3.5710    0.8430 C.2    61  ASP61       0.3668
     72  OD1       99.8770    2.7710    1.6700 O.co2  61  ASP61      -0.2456
     73  OD2       99.3940    4.8110    1.0040 O.co2  61  ASP61      -0.2456
     74  N         95.7660   -0.6850   -3.7770 N.3    63  PHE63      -0.1241
     75  CA        94.5610   -1.3340   -3.2630 C.3    63  PHE63       0.1605
     76  C         93.9800   -2.3680   -4.2270 C.2    63  PHE63       0.2264
     77  O         93.4340   -2.0150   -5.2720 O.2    63  PHE63      -0.2867
     78  CB        93.4980   -0.2830   -2.9200 C.3    63  PHE63       0.0534
     79  CG        93.3540   -0.0270   -1.4480 C.ar   63  PHE63      -0.0203
     80  CD1       94.4460    0.3800   -0.6900 C.ar   63  PHE63      -0.0042
     81  CD2       92.1220   -0.1950   -0.8200 C.ar   63  PHE63      -0.0042
     82  CE1       94.3130    0.6180    0.6720 C.ar   63  PHE63      -0.0003
     83  CE2       91.9770    0.0430    0.5370 C.ar   63  PHE63      -0.0003
     84  CZ        93.0730    0.4490    1.2860 C.ar   63  PHE63      -0.0000
     85  N         88.9400    3.9850    1.8140 N.3   130  THR130     -0.1218
     86  CA        90.1710    4.5460    1.2630 C.3   130  THR130      0.1862
     87  C         90.1320    4.9070   -0.2250 C.2   130  THR130      0.2287
     88  O         90.6120    5.9810   -0.5870 O.2   130  THR130     -0.2866
     89  CB        91.3600    3.6100    1.5320 C.3   130  THR130      0.1770
     90  OG1       91.4320    3.3460    2.9420 O.3   130  THR130     -0.2211
     91  CG2       92.6710    4.2270    1.0620 C.3   130  THR130      0.0375
     92  N         88.1000    7.9390   -0.4460 N.3   133  HIS133     -0.1241
     93  CA        88.9120    9.0580    0.0530 C.3   133  HIS133      0.1621
     94  C         89.7660    9.6450   -1.0640 C.2   133  HIS133      0.2264
     95  O         89.8410   10.8630   -1.2310 O.2   133  HIS133     -0.2867
     96  CB        89.8590    8.6210    1.1740 C.3   133  HIS133      0.0745
     97  CG        89.1800    8.3020    2.4690 C.ar  133  HIS133      0.0817
     98  ND1       89.7900    7.5570    3.4540 N.ar  133  HIS133     -0.2268
     99  CD2       87.9520    8.6170    2.9420 C.ar  133  HIS133      0.1154
    100  CE1       88.9720    7.4370    4.4850 C.ar  133  HIS133      0.1986
    101  NE2       87.8510    8.0740    4.2020 N.ar  133  HIS133     -0.2212
    102  N        102.3190   18.1580    7.5450 N.3   152  LYS152     -0.1245
    103  CA       102.8200   16.8390    7.9340 C.3   152  LYS152      0.1561
    104  C        104.1940   16.9300    8.5990 C.2   152  LYS152      0.2260
    105  O        104.4390   16.2720    9.5980 O.2   152  LYS152     -0.2867
    106  CB       102.8490   15.8980    6.7150 C.3   152  LYS152      0.0271
    107  CG       101.4440   15.4850    6.2930 C.3   152  LYS152      0.0035
    108  CD       101.3370   14.9310    4.8920 C.3   152  LYS152      0.0206
    109  CE       101.7310   13.4730    4.7890 C.3   152  LYS152      0.1093
    110  NZ       101.0840   12.8370    3.6050 N.3   152  LYS152     -0.1314
    111  N        102.3790   13.3360   14.3420 N.3   161  TYR161     -0.1241
    112  CA       101.9280   12.8290   13.0610 C.3   161  TYR161      0.1605
    113  C        101.6760   11.3290   13.1800 C.2   161  TYR161      0.2264
    114  O        102.5400   10.5830   13.6360 O.2   161  TYR161     -0.2867
    115  CB       102.9430   13.1010   11.9470 C.3   161  TYR161      0.0534
    116  CG       102.4370   12.5900   10.6120 C.ar  161  TYR161     -0.0201
    117  CD1      101.3910   13.2330    9.9600 C.ar  161  TYR161     -0.0009
    118  CD2      102.9630   11.4390   10.0300 C.ar  161  TYR161     -0.0009
    119  CE1      100.9000   12.7670    8.7650 C.ar  161  TYR161      0.0417
    120  CE2      102.4710   10.9670    8.8250 C.ar  161  TYR161      0.0417
    121  CZ       101.4370   11.6460    8.1990 C.ar  161  TYR161      0.1957
    122  OH       100.9210   11.2130    7.0050 O.3   161  TYR161     -0.2866
    123  N         97.8790    8.6310   13.2070 N.3   163  ALA163     -0.1245
    124  CA        96.7390    8.1610   13.9950 C.3   163  ALA163      0.1562
    125  C         96.9810    6.8230   14.7350 C.2   163  ALA163      0.2260
    126  O         96.1250    6.3950   15.5130 O.2   163  ALA163     -0.2867
    127  CB        95.5280    8.0310   13.1070 C.3   163  ALA163      0.0290
    128  N         96.3860   11.8060   11.3190 N.3   171  SER171     -0.1202
    129  CA        96.6600   11.0120   10.1120 C.3   171  SER171      0.2020
    130  C         96.9670   11.9190    8.9310 C.2   171  SER171      0.2619
    131  O         96.6930   13.1160    8.9720 O.2   171  SER171     -0.2717
    132  CB        95.4740   10.1150    9.7510 C.3   171  SER171      0.2103
    133  OG        94.3360   10.8870    9.4490 O.3   171  SER171     -0.2182
    134  N         97.5410   11.3370    7.8860 N.am  172  GLY172     -0.1942
    135  CA        97.7750   12.0440    6.6390 C.3   172  GLY172      0.2014
    136  C         96.4720   12.4920    6.0020 C.2   172  GLY172      0.2638
    137  O         96.3570   13.6270    5.5440 O.2   172  GLY172     -0.2714
    138  N         95.4810   11.6000    5.9820 N.am  173  TYR173     -0.1973
    139  CA        94.1570   11.9370    5.4580 C.3   173  TYR173      0.1639
    140  C         93.5690   13.1310    6.2080 C.2   173  TYR173      0.2290
    141  O         92.9900   14.0320    5.5990 O.2   173  TYR173     -0.2864
    142  CB        93.2040   10.7360    5.5410 C.3   173  TYR173      0.0560
    143  CG        91.8280   10.9960    4.9620 C.ar  173  TYR173     -0.0198
    144  CD1       91.6790   11.5770    3.7060 C.ar  173  TYR173     -0.0009
    145  CD2       90.6770   10.6520    5.6570 C.ar  173  TYR173     -0.0009
    146  CE1       90.4230   11.8230    3.1580 C.ar  173  TYR173      0.0417
    147  CE2       89.4040   10.8930    5.1130 C.ar  173  TYR173      0.0417
    148  CZ        89.2880   11.4830    3.8610 C.ar  173  TYR173      0.1957
    149  OH        88.0480   11.7310    3.3020 O.3   173  TYR173     -0.2866
    150  N         95.2810   16.2390    4.9600 N.3   176  GLU176     -0.1245
    151  CA        94.8000   16.6160    3.6420 C.3   176  GLU176      0.1567
    152  C         93.4240   17.2900    3.6820 C.2   176  GLU176      0.2260
    153  O         93.2090   18.2820    3.0050 O.2   176  GLU176     -0.2867
    154  CB        94.8260   15.4080    2.6870 C.3   176  GLU176      0.0388
    155  CG        96.2540   15.0280    2.2760 C.3   176  GLU176      0.1160
    156  CD        96.3460   13.9960    1.1420 C.2   176  GLU176      0.3649
    157  OE1       96.2000   14.3670   -0.0450 O.co2 176  GLU176     -0.2457
    158  OE2       96.6110   12.8060    1.4450 O.co2 176  GLU176     -0.2457
    159  N         81.6430    9.1430   10.2550 N.3   224  ARG224     -0.1245
    160  CA        83.0440    8.8590   10.5790 C.3   224  ARG224      0.1563
    161  C         83.7730   10.1180   11.0670 C.2   224  ARG224      0.2260
    162  O         83.7630   11.1560   10.3950 O.2   224  ARG224     -0.2867
    163  CB        83.7410    8.2350    9.3530 C.3   224  ARG224      0.0307
    164  CG        85.2640    8.3430    9.2800 C.3   224  ARG224      0.0489
    165  CD        85.9750    7.3900   10.2310 C.3   224  ARG224      0.2205
    166  NE        87.4120    7.6430   10.2340 N.pl3 224  ARG224     -0.0865
    167  CZ        88.3110    6.9930   10.9700 C.cat 224  ARG224      0.5346
    168  NH1       87.9460    6.0260   11.8080 N.pl3 224  ARG224      0.1354
    169  NH2       89.5930    7.3270   10.8750 N.pl3 224  ARG224      0.1354
    170  N         87.2890   11.4720   11.4390 N.3   226  VAL226     -0.1245
    171  CA        88.6430   11.2520   10.9300 C.3   226  VAL226      0.1561
    172  C         89.6650   11.4430   12.0550 C.2   226  VAL226      0.2260
    173  O         90.6730   10.7360   12.1030 O.2   226  VAL226     -0.2867
    174  CB        88.9520   12.1760    9.7410 C.3   226  VAL226      0.0252
    175  CG1       90.3960   11.9970    9.2590 C.3   226  VAL226      0.0019
    176  CG2       87.9710   11.8980    8.5940 C.3   226  VAL226      0.0019
@<TRIPOS>BOND
     1    77    76    2
     2    42    41   ar
     3    42    40   ar
     4    19    18    1
     5    19    20    1
     6    19    22    1
     7    20    21    2
     8    41    39   ar
     9     1     2    1
    10    76    75    1
    11    40    38   ar
    12    23    22    1
    13    23    24    1
    14    74    75    1
    15     6     5    1
    16     2     5    1
    17     2     3    1
    18    69    68    2
    19    75    78    1
    20    39    36   ar
    21    24    25    1
    22    78    79    1
    23     5     7    1
    24    38    36   ar
    25    38    37   ar
    26    68    67    1
    27     4     3    2
    28     3     8   am
    29    25    26    2
    30    36    34   ar
    31    11    10    2
    32    15    14    2
    33     8     9    1
    34    66    67    1
    35    14    13    1
    36    37    35   ar
    37    79    81   ar
    38    79    80   ar
    39    67    70    1
    40    95    94    2
    41    26    27    1
    42    26    28    1
    43    94    93    1
    44    10     9    1
    45    10    12   am
    46    81    83   ar
    47    34    35   ar
    48    34    33    1
    49    80    82   ar
    50    88    87    2
    51    92    93    1
    52    70    71    1
    53    60    59    2
    54    13    12    1
    55    13    16    1
    56    59    58    1
    57    87    86    1
    58    29    30    1
    59   157   156   ar
    60    93    96    1
    61    33    30    1
    62    57    58    1
    63    83    84   ar
    64    32    31    2
    65    58    61    1
    66    82    84   ar
    67    30    31    1
    68    71    73   ar
    69    71    72   ar
    70    16    17    1
    71    91    89    1
    72   156   158   ar
    73   156   155    1
    74    96    97    1
    75    86    89    1
    76    86    85    1
    77    31    43   am
    78    89    90    1
    79    64    63   ar
    80    61    62    1
    81   155   154    1
    82    63    62    1
    83    63    65   ar
    84    97    99   ar
    85    97    98   ar
    86    43    44    1
    87    54    53    2
    88    46    45    2
    89    53    52    1
    90   154   151    1
    91    45    44    1
    92    99   101   ar
    93   153   152    2
    94   146   144   ar
    95   146   148   ar
    96    44    47    1
    97   149   148    1
    98    51    52    1
    99    98   100   ar
   100   110   109    1
   101   151   152    1
   102   151   150    1
   103   144   143   ar
   104    52    55    1
   105   148   147   ar
   106   101   100   ar
   107    47    48    1
   108   109   108    1
   109    55    56    1
   110   108   107    1
   111   143   142    1
   112   143   145   ar
   113   147   145   ar
   114    49    48    1
   115   139   142    1
   116   139   138    1
   117   139   140    1
   118   137   136    2
   119    48    50    1
   120   141   140    2
   121   138   136   am
   122   136   135    1
   123   107   106    1
   124   135   134    1
   125   106   103    1
   126   122   121    1
   127   102   103    1
   128   134   130   am
   129   103   104    1
   130   121   119   ar
   131   121   120   ar
   132   176   174    1
   133   104   105    2
   134   119   117   ar
   135   120   118   ar
   136   130   131    2
   137   130   129    1
   138   175   174    1
   139   164   163    1
   140   164   165    1
   141   163   160    1
   142   133   132    1
   143   174   171    1
   144   132   129    1
   145   117   116   ar
   146   118   116   ar
   147   129   128    1
   148   165   166    1
   149   166   167    2
   150   159   160    1
   151   162   161    2
   152   160   161    1
   153   116   115    1
   154   169   167    1
   155   171   170    1
   156   171   172    1
   157   167   168    1
   158   115   112    1
   159   172   173    2
   160   112   113    1
   161   112   111    1
   162   127   124    1
   163   113   114    2
   164   123   124    1
   165   124   125    1
   166   125   126    2
