@<TRIPOS>MOLECULE
tmp/1tfzA00.pdb
 193 183 0 0 0
SMALL
GASTEIGER

@<TRIPOS>ATOM
      1  N         51.7250   38.8880   43.7370 N.3   184  HIS184     -0.1241
      2  CA        51.7070   37.5300   44.2630 C.3   184  HIS184      0.1621
      3  C         50.4600   36.7350   43.8490 C.2   184  HIS184      0.2264
      4  O         49.4060   37.3100   43.5820 O.2   184  HIS184     -0.2867
      5  CB        51.9270   37.5110   45.7820 C.3   184  HIS184      0.0745
      6  CG        50.8960   38.2400   46.5890 C.ar  184  HIS184      0.0817
      7  ND1       50.9890   39.5850   46.8830 N.ar  184  HIS184     -0.2268
      8  CD2       49.8230   37.7850   47.2750 C.ar  184  HIS184      0.1154
      9  CE1       50.0270   39.9190   47.7260 C.ar  184  HIS184      0.1986
     10  NE2       49.3060   38.8430   47.9780 N.ar  184  HIS184     -0.2212
     11  N         48.3610   33.4780   45.1530 N.3   186  VAL186     -0.1245
     12  CA        48.1060   32.6040   46.2880 C.3   186  VAL186      0.1561
     13  C         47.2030   31.4050   46.0200 C.2   186  VAL186      0.2260
     14  O         46.1350   31.5530   45.4360 O.2   186  VAL186     -0.2867
     15  CB        47.4820   33.4360   47.4280 C.3   186  VAL186      0.0252
     16  CG1       47.2850   32.5990   48.6810 C.3   186  VAL186      0.0019
     17  CG2       48.3400   34.6540   47.7050 C.3   186  VAL186      0.0019
     18  N         43.3060   29.8680   59.2960 N.3   212  LEU212     -0.1245
     19  CA        44.2740   29.4400   58.2820 C.3   212  LEU212      0.1561
     20  C         45.7230   29.4570   58.7390 C.2   212  LEU212      0.2260
     21  O         46.0620   30.0450   59.7700 O.2   212  LEU212     -0.2867
     22  CB        44.1700   30.3100   57.0140 C.3   212  LEU212      0.0270
     23  CG        44.3880   31.8380   57.0580 C.3   212  LEU212      0.0019
     24  CD1       45.8280   32.2590   57.3580 C.3   212  LEU212      0.0001
     25  CD2       43.9710   32.4080   55.7240 C.3   212  LEU212      0.0001
     26  N         49.5180   29.9280   56.6800 N.3   214  SER214     -0.1202
     27  CA        50.0850   30.3040   55.3960 C.3   214  SER214      0.2020
     28  C         51.6110   30.2990   55.3870 C.2   214  SER214      0.2619
     29  O         52.2690   30.2870   56.4330 O.2   214  SER214     -0.2717
     30  CB        49.6050   31.7120   55.0290 C.3   214  SER214      0.2103
     31  OG        48.2470   31.9000   55.3750 O.3   214  SER214     -0.2182
     32  N         52.1690   30.3500   54.1900 N.am  215  ALA215     -0.1965
     33  CA        53.6010   30.3930   54.0120 C.3   215  ALA215      0.1728
     34  C         53.8280   30.9560   52.6250 C.2   215  ALA215      0.2616
     35  O         53.0450   30.7080   51.7100 O.2   215  ALA215     -0.2715
     36  CB        54.1850   29.0180   54.1380 C.3   215  ALA215      0.0334
     37  N         54.8650   31.7610   52.4790 N.am  216  VAL216     -0.1977
     38  CA        55.1780   32.3890   51.2130 C.3   216  VAL216      0.1596
     39  C         56.4820   31.8470   50.6690 C.2   216  VAL216      0.2287
     40  O         57.4930   31.8350   51.3650 O.2   216  VAL216     -0.2864
     41  CB        55.3460   33.9220   51.3770 C.3   216  VAL216      0.0276
     42  CG1       55.7250   34.5610   50.0520 C.3   216  VAL216      0.0022
     43  CG2       54.0860   34.5490   51.9430 C.3   216  VAL216      0.0022
     44  N         52.4680   32.3230   47.5040 N.3   227  PRO227     -0.2116
     45  CA        51.9830   31.9700   48.8420 C.3   227  PRO227      0.1372
     46  C         50.9740   30.7990   48.8180 C.2   227  PRO227      0.2244
     47  O         50.3260   30.5620   47.8010 O.2   227  PRO227     -0.2868
     48  CB        51.3310   33.2700   49.3160 C.3   227  PRO227      0.0268
     49  CG        52.0550   34.3380   48.5210 C.3   227  PRO227      0.0207
     50  CD        52.1100   33.7110   47.1730 C.3   227  PRO227      0.0892
     51  N         47.9600   28.6630   51.4800 N.3   229  ASN229     -0.1240
     52  CA        47.2280   28.6000   52.7400 C.3   229  ASN229      0.1653
     53  C         46.6290   27.2170   52.8580 C.2   229  ASN229      0.2266
     54  O         46.4410   26.5230   51.8580 O.2   229  ASN229     -0.2867
     55  CB        46.0210   29.5520   52.7720 C.3   229  ASN229      0.1155
     56  CG        46.3270   30.9280   52.2430 C.2   229  ASN229      0.2627
     57  OD1       45.7040   31.3860   51.2810 O.2   229  ASN229     -0.2716
     58  ND2       47.2660   31.6060   52.8720 N.am  229  ASN229     -0.0877
     59  N         37.5880   29.8800   56.1280 N.3   237  GLN237     -0.1245
     60  CA        37.2230   30.5160   54.8710 C.3   237  GLN237      0.1566
     61  C         37.8640   29.6740   53.7720 C.2   237  GLN237      0.2260
     62  O         37.2650   29.4480   52.7230 O.2   237  GLN237     -0.2867
     63  CB        37.7700   31.9540   54.8370 C.3   237  GLN237      0.0367
     64  CG        37.3130   32.8660   56.0010 C.3   237  GLN237      0.0905
     65  CD        37.7190   32.3890   57.4200 C.2   237  GLN237      0.2608
     66  OE1       36.9240   32.5010   58.3660 O.2   237  GLN237     -0.2717
     67  NE2       38.9410   31.8480   57.5720 N.am  237  GLN237     -0.0878
     68  N         43.6440   31.0290   44.9800 N.3   251  GLN251     -0.1231
     69  CA        42.6860   31.7640   45.7880 C.3   251  GLN251      0.1698
     70  C         42.5980   33.2010   45.3280 C.2   251  GLN251      0.2592
     71  O         41.5070   33.6940   45.0550 O.2   251  GLN251     -0.2718
     72  CB        43.0750   31.7060   47.2640 C.3   251  GLN251      0.0381
     73  CG        42.1140   32.4110   48.2120 C.3   251  GLN251      0.0905
     74  CD        42.8210   33.0230   49.4110 C.2   251  GLN251      0.2608
     75  OE1       43.9930   33.3820   49.3280 O.2   251  GLN251     -0.2717
     76  NE2       42.1010   33.1840   50.5020 N.am  251  GLN251     -0.0878
     77  N         43.7460   33.8680   45.2150 N.am  252  HIS252     -0.1976
     78  CA        43.7520   35.2600   44.7820 C.3   252  HIS252      0.1656
     79  C         45.0040   35.7370   44.0820 C.2   252  HIS252      0.2291
     80  O         46.0840   35.1950   44.2550 O.2   252  HIS252     -0.2864
     81  CB        43.3580   36.2200   45.9330 C.3   252  HIS252      0.0771
     82  CG        44.4300   36.4560   46.9610 C.ar  252  HIS252      0.0820
     83  ND1       44.5350   35.7100   48.1160 N.ar  252  HIS252     -0.2267
     84  CD2       45.3820   37.4160   47.0520 C.ar  252  HIS252      0.1154
     85  CE1       45.4970   36.2010   48.8780 C.ar  252  HIS252      0.1986
     86  NE2       46.0260   37.2380   48.2520 N.ar  252  HIS252     -0.2212
     87  N         34.7060   44.1710   48.4450 N.3   279  MET279     -0.1245
     88  CA        34.1450   43.7260   49.7160 C.3   279  MET279      0.1570
     89  C         33.6950   44.9500   50.4900 C.2   279  MET279      0.2261
     90  O         34.1140   46.0510   50.1910 O.2   279  MET279     -0.2867
     91  CB        35.1950   42.9770   50.5290 C.3   279  MET279      0.0387
     92  CG        36.0400   42.0610   49.7010 C.3   279  MET279      0.0595
     93  SD        36.6260   40.7220   50.6900 S.3   279  MET279     -0.1393
     94  CE        35.1380   39.6450   50.5050 C.3   279  MET279      0.0692
     95  N         42.4350   49.4260   52.5370 N.3   312  LEU312     -0.1245
     96  CA        42.9940   48.9680   53.8110 C.3   312  LEU312      0.1561
     97  C         44.4960   49.2960   53.8430 C.2   312  LEU312      0.2260
     98  O         45.1310   49.4780   52.7900 O.2   312  LEU312     -0.2867
     99  CB        42.7640   47.4500   54.0040 C.3   312  LEU312      0.0270
    100  CG        41.3460   46.9120   54.2850 C.3   312  LEU312      0.0019
    101  CD1       40.6300   46.6120   52.9800 C.3   312  LEU312      0.0001
    102  CD2       41.3820   45.6360   55.1280 C.3   312  LEU312      0.0001
    103  N         46.0340   48.0310   50.3890 N.3   323  GLN323     -0.1245
    104  CA        45.3950   46.8960   49.7260 C.3   323  GLN323      0.1566
    105  C         43.8700   46.9320   49.8170 C.2   323  GLN323      0.2260
    106  O         43.3200   47.5340   50.7350 O.2   323  GLN323     -0.2867
    107  CB        45.8850   45.6010   50.3790 C.3   323  GLN323      0.0367
    108  CG        45.5100   45.5050   51.8590 C.3   323  GLN323      0.0905
    109  CD        46.0450   44.2620   52.5390 C.2   323  GLN323      0.2608
    110  OE1       45.9640   44.1290   53.7550 O.2   323  GLN323     -0.2717
    111  NE2       46.5810   43.3390   51.7540 N.am  323  GLN323     -0.0878
    112  N         40.2550   44.2700   48.3740 N.3   325  PHE325     -0.1241
    113  CA        39.8720   43.0150   47.7360 C.3   325  PHE325      0.1605
    114  C         38.5270   43.0470   47.0410 C.2   325  PHE325      0.2264
    115  O         37.5490   43.5730   47.5660 O.2   325  PHE325     -0.2867
    116  CB        39.8470   41.8860   48.7830 C.3   325  PHE325      0.0534
    117  CG        41.1220   41.7630   49.5790 C.ar  325  PHE325     -0.0203
    118  CD1       41.3120   42.5230   50.7250 C.ar  325  PHE325     -0.0042
    119  CD2       42.1670   40.9620   49.1280 C.ar  325  PHE325     -0.0042
    120  CE1       42.5300   42.4940   51.3950 C.ar  325  PHE325     -0.0003
    121  CE2       43.3790   40.9290   49.7920 C.ar  325  PHE325     -0.0003
    122  CZ        43.5650   41.6970   50.9210 C.ar  325  PHE325     -0.0000
    123  N         39.3660   35.5190   43.8620 N.3   336  PHE336     -0.1241
    124  CA        39.1010   36.9410   43.9590 C.3   336  PHE336      0.1605
    125  C         40.4070   37.6710   43.6800 C.2   336  PHE336      0.2264
    126  O         41.4720   37.0500   43.5530 O.2   336  PHE336     -0.2867
    127  CB        38.4780   37.3300   45.3180 C.3   336  PHE336      0.0534
    128  CG        39.3390   37.0190   46.5170 C.ar  336  PHE336     -0.0203
    129  CD1       40.1500   38.0090   47.0910 C.ar  336  PHE336     -0.0042
    130  CD2       39.3250   35.7500   47.0810 C.ar  336  PHE336     -0.0042
    131  CE1       40.9420   37.7360   48.2160 C.ar  336  PHE336     -0.0003
    132  CE2       40.1070   35.4600   48.2030 C.ar  336  PHE336     -0.0003
    133  CZ        40.9230   36.4660   48.7750 C.ar  336  PHE336     -0.0000
    134  N         43.1000   41.1040   44.4180 N.3   338  GLU338     -0.1245
    135  CA        43.6010   42.0590   45.3910 C.3   338  GLU338      0.1567
    136  C         44.3650   43.1560   44.6580 C.2   338  GLU338      0.2260
    137  O         45.1410   42.8790   43.7480 O.2   338  GLU338     -0.2867
    138  CB        44.5390   41.3870   46.3960 C.3   338  GLU338      0.0388
    139  CG        45.4200   42.3830   47.1580 C.3   338  GLU338      0.1160
    140  CD        46.2790   41.7140   48.1970 C.2   338  GLU338      0.3649
    141  OE1       46.7100   42.3810   49.1640 O.co2 338  GLU338     -0.2457
    142  OE2       46.5130   40.5040   48.0430 O.co2 338  GLU338     -0.2457
    143  N         51.8780   41.4200   53.6750 N.3   354  PHE354     -0.1227
    144  CA        50.7210   40.9680   52.9120 C.3   354  PHE354      0.1736
    145  C         49.4110   41.3160   53.5870 C.2   354  PHE354      0.2596
    146  O         48.3480   40.8070   53.2230 O.2   354  PHE354     -0.2718
    147  CB        50.8360   39.4650   52.6410 C.3   354  PHE354      0.0547
    148  CG        52.0680   39.0910   51.8560 C.ar  354  PHE354     -0.0202
    149  CD1       53.2470   38.7370   52.5140 C.ar  354  PHE354     -0.0042
    150  CD2       52.0700   39.1500   50.4630 C.ar  354  PHE354     -0.0042
    151  CE1       54.4000   38.4530   51.8020 C.ar  354  PHE354     -0.0003
    152  CE2       53.2280   38.8640   49.7360 C.ar  354  PHE354     -0.0003
    153  CZ        54.3980   38.5150   50.4130 C.ar  354  PHE354     -0.0000
    154  N         49.4940   42.1550   54.6130 N.am  355  GLY355     -0.1942
    155  CA        48.2980   42.5940   55.2990 C.3   355  GLY355      0.2014
    156  C         47.7830   41.6770   56.3770 C.2   355  GLY355      0.2638
    157  O         46.6060   41.7250   56.7180 O.2   355  GLY355     -0.2714
    158  N         48.6420   40.8090   56.8990 N.am  356  LYS356     -0.1977
    159  CA        48.2240   39.9080   57.9710 C.3   356  LYS356      0.1596
    160  C         47.7180   40.7120   59.1880 C.2   356  LYS356      0.2287
    161  O         46.8160   40.2690   59.9100 O.2   356  LYS356     -0.2864
    162  CB        49.3770   38.9660   58.3540 C.3   356  LYS356      0.0298
    163  CG        49.9030   38.1520   57.1650 C.3   356  LYS356      0.0038
    164  CD        51.1550   37.3220   57.5030 C.3   356  LYS356      0.0206
    165  CE        51.8130   36.7580   56.2190 C.3   356  LYS356      0.1093
    166  NZ        53.0110   35.8630   56.4310 N.3   356  LYS356     -0.1314
    167  N         45.9140   43.2690   59.1030 N.3   358  ASN358     -0.1225
    168  CA        44.5470   43.7080   58.8130 C.3   358  ASN358      0.1785
    169  C         43.4850   42.6970   59.2450 C.2   358  ASN358      0.2597
    170  O         42.3620   43.0830   59.5640 O.2   358  ASN358     -0.2718
    171  CB        44.3960   44.0760   57.3370 C.3   358  ASN358      0.1169
    172  CG        44.8450   45.4940   57.0420 C.2   358  ASN358      0.2627
    173  OD1       44.5200   46.4160   57.7790 O.2   358  ASN358     -0.2716
    174  ND2       45.5710   45.6780   55.9390 N.am  358  ASN358     -0.0877
    175  N         43.8400   41.4130   59.2840 N.am  359  PHE359     -0.1976
    176  CA        42.9110   40.3690   59.7400 C.3   359  PHE359      0.1639
    177  C         42.4450   40.7020   61.1330 C.2   359  PHE359      0.2290
    178  O         41.2840   40.4660   61.4910 O.2   359  PHE359     -0.2864
    179  CB        43.6120   39.0180   59.8340 C.3   359  PHE359      0.0560
    180  CG        43.8300   38.3480   58.5210 C.ar  359  PHE359     -0.0200
    181  CD1       45.0310   38.4980   57.8410 C.ar  359  PHE359     -0.0042
    182  CD2       42.8560   37.5110   57.9940 C.ar  359  PHE359     -0.0042
    183  CE1       45.2720   37.8150   56.6500 C.ar  359  PHE359     -0.0003
    184  CE2       43.0800   36.8210   56.8000 C.ar  359  PHE359     -0.0003
    185  CZ        44.2950   36.9720   56.1280 C.ar  359  PHE359     -0.0000
    186  N         40.9730   44.6630   61.4290 N.3   362  LEU362     -0.1245
    187  CA        39.6150   44.7140   60.8840 C.3   362  LEU362      0.1561
    188  C         38.5800   44.2700   61.8730 C.2   362  LEU362      0.2260
    189  O         37.4970   44.8960   61.9760 O.2   362  LEU362     -0.2867
    190  CB        39.4940   43.8420   59.6430 C.3   362  LEU362      0.0270
    191  CG        39.0510   44.6280   58.4170 C.3   362  LEU362      0.0019
    192  CD1       38.7840   43.6320   57.2830 C.3   362  LEU362      0.0001
    193  CD2       37.7970   45.4500   58.7250 C.3   362  LEU362      0.0001
@<TRIPOS>BOND
     1   126   125    2
     2     4     3    2
     3   125   124    1
     4     1     2    1
     5   137   136    2
     6     3     2    1
     7   123   124    1
     8   124   127    1
     9    79    80    2
    10    79    78    1
    11     2     5    1
    12   134   135    1
    13   136   135    1
    14    78    77    1
    15    78    81    1
    16    68    69    1
    17    71    70    2
    18    11    12    1
    19    77    70   am
    20   127   128    1
    21    70    69    1
    22   135   138    1
    23    14    13    2
    24     5     6    1
    25    69    72    1
    26    81    82    1
    27    13    12    1
    28    12    15    1
    29   138   139    1
    30   128   130   ar
    31   128   129   ar
    32     6     7   ar
    33     6     8   ar
    34     7     9   ar
    35    82    84   ar
    36    82    83   ar
    37   114   115    2
    38   114   113    1
    39    84    86   ar
    40   130   132   ar
    41   129   131   ar
    42   139   140    1
    43    50    44    1
    44    50    49    1
    45    72    73    1
    46     8    10   ar
    47    15    17    1
    48    15    16    1
    49    44    45    1
    50     9    10   ar
    51   113   112    1
    52   113   116    1
    53    47    46    2
    54   142   140   ar
    55    83    85   ar
    56   140   141   ar
    57   132   133   ar
    58    73    74    1
    59   131   133   ar
    60    86    85   ar
    61    87    88    1
    62    49    48    1
    63   116   117    1
    64    46    45    1
    65    45    48    1
    66   119   117   ar
    67   119   121   ar
    68    75    74    2
    69    74    76   am
    70   117   118   ar
    71    92    91    1
    72    92    93    1
    73    88    89    1
    74    88    91    1
    75   104   105    1
    76   104   107    1
    77   104   103    1
    78   152   153   ar
    79   152   150   ar
    80   121   122   ar
    81   105   106    2
    82    42    41    1
    83    90    89    2
    84   107   108    1
    85   153   151   ar
    86   150   148   ar
    87    94    93    1
    88    39    38    1
    89    39    40    2
    90   118   120   ar
    91   122   120   ar
    92    38    41    1
    93    38    37    1
    94    57    56    2
    95    41    43    1
    96    51    52    1
    97    35    34    2
    98   111   109   am
    99   151   149   ar
   100   148   149   ar
   101   148   147    1
   102    54    53    2
   103   108   109    1
   104    56    55    1
   105    56    58   am
   106    37    34   am
   107    95    96    1
   108   109   110    2
   109    34    33    1
   110   147   144    1
   111    62    61    2
   112    52    55    1
   113    52    53    1
   114    98    97    2
   115   144   145    1
   116   144   143    1
   117   101   100    1
   118   146   145    2
   119   145   154   am
   120    61    60    1
   121    96    97    1
   122    96    99    1
   123    99   100    1
   124    33    36    1
   125    33    32    1
   126    32    28   am
   127   100   102    1
   128   154   155    1
   129    63    60    1
   130    63    64    1
   131    60    59    1
   132    30    31    1
   133    30    27    1
   134   155   156    1
   135    28    27    1
   136    28    29    2
   137    27    26    1
   138    25    23    1
   139   174   172   am
   140    64    65    1
   141   185   183   ar
   142   185   184   ar
   143   165   166    1
   144   165   164    1
   145   156   157    2
   146   156   158   am
   147   183   181   ar
   148   184   182   ar
   149   158   159    1
   150    22    23    1
   151    22    19    1
   152   172   171    1
   153   172   173    2
   154    23    24    1
   155   163   164    1
   156   163   162    1
   157   192   191    1
   158   171   168    1
   159    65    67   am
   160    65    66    2
   161   181   180   ar
   162   159   162    1
   163   159   160    1
   164   182   180   ar
   165    19    20    1
   166    19    18    1
   167   191   193    1
   168   191   190    1
   169   180   179    1
   170    20    21    2
   171   168   167    1
   172   168   169    1
   173   160   161    2
   174   169   175   am
   175   169   170    2
   176   175   176    1
   177   190   187    1
   178   176   179    1
   179   176   177    1
   180   187   186    1
   181   187   188    1
   182   177   178    2
   183   188   189    2
