@<TRIPOS>MOLECULE
tmp/1tg1A00.pdb
 162 160 0 0 0
SMALL
GASTEIGER

@<TRIPOS>ATOM
      1  N         10.6410   16.7660   -5.4760 N.3     2  LEU2       -0.1231
      2  CA         9.2950   17.3150   -5.3940 C.3     2  LEU2        0.1693
      3  C          8.2600   16.3890   -4.7510 C.2     2  LEU2        0.2591
      4  O          7.4580   16.8400   -3.9340 O.2     2  LEU2       -0.2718
      5  CB         8.8320   17.7500   -6.7820 C.3     2  LEU2        0.0284
      6  CG         7.5490   18.5800   -6.8140 C.3     2  LEU2        0.0019
      7  CD1        7.6060   19.7790   -5.8760 C.3     2  LEU2        0.0001
      8  CD2        7.2960   19.0290   -8.2280 C.3     2  LEU2        0.0001
      9  N          8.2620   15.1100   -5.1060 N.am    3  LEU3       -0.1980
     10  CA         7.3020   14.1740   -4.5190 C.3     3  LEU3        0.1596
     11  C          7.5380   13.9840   -3.0350 C.2     3  LEU3        0.2287
     12  O          6.5810   13.9140   -2.2560 O.2     3  LEU3       -0.2864
     13  CB         7.3620   12.8200   -5.2040 C.3     3  LEU3        0.0297
     14  CG         6.4950   12.6830   -6.4430 C.3     3  LEU3        0.0022
     15  CD1        6.6670   11.2700   -6.9280 C.3     3  LEU3        0.0001
     16  CD2        5.0290   12.9730   -6.1590 C.3     3  LEU3        0.0001
     17  N          9.0140   16.1500   -1.0530 N.3     5  PHE5       -0.1241
     18  CA         8.6420   17.4240   -0.4480 C.3     5  PHE5        0.1605
     19  C          7.1230   17.4230   -0.2440 C.2     5  PHE5        0.2264
     20  O          6.6350   17.8110    0.8060 O.2     5  PHE5       -0.2867
     21  CB         9.0870   18.5780   -1.3610 C.3     5  PHE5        0.0534
     22  CG         8.8210   19.9640   -0.8240 C.ar    5  PHE5       -0.0203
     23  CD1        8.9630   20.2690    0.5240 C.ar    5  PHE5       -0.0042
     24  CD2        8.4820   20.9790   -1.7020 C.ar    5  PHE5       -0.0042
     25  CE1        8.7370   21.5600    0.9750 C.ar    5  PHE5       -0.0003
     26  CE2        8.2540   22.2650   -1.2530 C.ar    5  PHE5       -0.0003
     27  CZ         8.3970   22.5620    0.0920 C.ar    5  PHE5       -0.0000
     28  N          5.1310   17.8890    3.2370 N.3     9  ILE9       -0.1245
     29  CA         4.1220   18.9270    3.4240 C.3     9  ILE9        0.1561
     30  C          2.8230   18.3430    3.9830 C.2     9  ILE9        0.2260
     31  O          2.2400   18.8940    4.9330 O.2     9  ILE9       -0.2867
     32  CB         3.8590   19.6500    2.0920 C.3     9  ILE9        0.0252
     33  CG1        5.0710   20.5000    1.7110 C.3     9  ILE9        0.0019
     34  CG2        2.6020   20.5130    2.1930 C.3     9  ILE9        0.0019
     35  CD1        5.0420   20.9850    0.2860 C.3     9  ILE9        0.0001
     36  N         -0.0720   18.7890   -0.9640 N.3    17  ALA17      -0.1231
     37  CA         0.7870   19.7700   -1.6200 C.3    17  ALA17       0.1694
     38  C          0.1200   20.2810   -2.8960 C.2    17  ALA17       0.2591
     39  O          0.1010   21.4780   -3.1470 O.2    17  ALA17      -0.2718
     40  CB         2.1540   19.1780   -1.9050 C.3    17  ALA17       0.0304
     41  N         -0.3860   19.3530   -3.7130 N.am   18  ILE18      -0.1980
     42  CA        -1.2490   19.6780   -4.8490 C.3    18  ILE18       0.1595
     43  C         -2.6600   19.3480   -4.3290 C.2    18  ILE18       0.2287
     44  O         -2.9510   18.1810   -4.0710 O.2    18  ILE18      -0.2864
     45  CB        -0.9680   18.7810   -6.0740 C.3    18  ILE18       0.0276
     46  CG1        0.4890   18.8430   -6.5060 C.3    18  ILE18       0.0022
     47  CG2       -1.8780   19.1710   -7.2450 C.3    18  ILE18       0.0022
     48  CD1        0.8620   17.7030   -7.4440 C.3    18  ILE18       0.0001
     49  N         -0.5840   23.9430   -2.0320 N.3    21  TYR21      -0.1227
     50  CA         0.6410   24.7330   -2.0630 C.3    21  TYR21       0.1736
     51  C          1.2400   24.8700   -3.4850 C.2    21  TYR21       0.2596
     52  O          2.2820   25.4940   -3.6770 O.2    21  TYR21      -0.2718
     53  CB         1.6480   24.1200   -1.0660 C.3    21  TYR21       0.0548
     54  CG         1.2240   24.2590    0.3940 C.ar   21  TYR21      -0.0200
     55  CD1        1.3980   25.4570    1.0710 C.ar   21  TYR21      -0.0009
     56  CD2        0.6620   23.2020    1.0900 C.ar   21  TYR21      -0.0009
     57  CE1        1.0240   25.5990    2.3960 C.ar   21  TYR21       0.0417
     58  CE2        0.3020   23.3370    2.4240 C.ar   21  TYR21       0.0417
     59  CZ         0.4800   24.5430    3.0690 C.ar   21  TYR21       0.1957
     60  OH         0.1060   24.7050    4.3870 O.3    21  TYR21      -0.2866
     61  N          0.5580   24.3460   -4.4980 N.am   22  SER22      -0.1952
     62  CA         1.2220   24.1140   -5.7890 C.3    22  SER22       0.1924
     63  C          1.0440   25.3050   -6.6920 C.2    22  SER22       0.2314
     64  O          1.7030   25.4280   -7.7200 O.2    22  SER22      -0.2863
     65  CB         0.6870   22.8500   -6.4860 C.3    22  SER22       0.2116
     66  OG        -0.7200   22.8040   -6.4650 O.3    22  SER22      -0.2180
     67  N          4.7490   32.7890   -5.0810 N.3    27  TYR27      -0.1227
     68  CA         5.9430   31.9470   -5.0410 C.3    27  TYR27       0.1736
     69  C          5.7430   30.4530   -4.8940 C.2    27  TYR27       0.2596
     70  O          6.7080   29.6950   -5.0420 O.2    27  TYR27      -0.2718
     71  CB         6.8520   32.4410   -3.9200 C.3    27  TYR27       0.0548
     72  CG         7.4110   33.7740   -4.3160 C.ar   27  TYR27      -0.0200
     73  CD1        6.7600   34.9530   -3.9760 C.ar   27  TYR27      -0.0009
     74  CD2        8.5270   33.8510   -5.1270 C.ar   27  TYR27      -0.0009
     75  CE1        7.2410   36.1720   -4.3920 C.ar   27  TYR27       0.0417
     76  CE2        9.0160   35.0590   -5.5490 C.ar   27  TYR27       0.0417
     77  CZ         8.3800   36.2220   -5.1750 C.ar   27  TYR27       0.1957
     78  OH         8.9090   37.4210   -5.6330 O.3    27  TYR27      -0.2866
     79  N          4.5230   30.0090   -4.6480 N.am   28  CYS28      -0.1956
     80  CA         4.3590   28.6250   -4.2260 C.3    28  CYS28       0.1843
     81  C          4.0770   27.8110   -5.4520 C.2    28  CYS28       0.2626
     82  O          3.0630   28.0340   -6.1270 O.2    28  CYS28      -0.2714
     83  CB         3.2320   28.4270   -3.2090 C.3    28  CYS28       0.0997
     84  SG         3.5490   29.0630   -1.5430 S.3    28  CYS28      -0.0797
     85  N          4.9830   26.8910   -5.7460 N.am   29  GLY29      -0.1940
     86  CA         4.8270   25.9590   -6.8400 C.3    29  GLY29       0.2014
     87  C          5.2440   26.5360   -8.1650 C.2    29  GLY29       0.2639
     88  O          5.3780   25.7900   -9.1390 O.2    29  GLY29      -0.2714
     89  N          5.4540   27.8510   -8.2090 N.am   30  TRP30      -0.1959
     90  CA         5.7570   28.5350   -9.4580 C.3    30  TRP30       0.1771
     91  C          6.3010   29.9860   -9.2800 C.2    30  TRP30       0.2616
     92  O          5.9390   30.8680  -10.0560 O.2    30  TRP30      -0.2715
     93  CB         4.5310   28.4390  -10.3910 C.3    30  TRP30       0.0590
     94  CG         4.7680   28.6370  -11.8710 C.ar   30  TRP30       0.0006
     95  CD1        4.4900   29.7580  -12.5900 C.ar   30  TRP30       0.0946
     96  CD2        5.2680   27.6740  -12.8190 C.ar   30  TRP30       0.0152
     97  NE1        4.8060   29.5680  -13.9140 N.ar   30  TRP30      -0.2442
     98  CE2        5.2880   28.2990  -14.0820 C.ar   30  TRP30       0.0810
     99  CE3        5.7180   26.3510  -12.7270 C.ar   30  TRP30       0.0012
    100  CZ2        5.7310   27.6510  -15.2350 C.ar   30  TRP30       0.0191
    101  CZ3        6.1630   25.7120  -13.8720 C.ar   30  TRP30       0.0001
    102  CH2        6.1630   26.3610  -15.1080 C.ar   30  TRP30       0.0015
    103  N          6.9510   30.2460   -8.1340 N.am   31  GLY31      -0.2012
    104  CA         8.1650   31.0840   -8.0340 C.3    31  GLY31       0.1506
    105  C          8.4190   32.2450   -8.9790 C.3    31  GLY31       0.2054
    106  O          8.1390   31.8920  -10.0910 O.3    31  GLY31      -0.2184
    107  N          7.4140   30.0180    0.6970 N.3    44  CYS44      -0.1235
    108  CA         7.7690   29.6170   -0.6530 C.3    44  CYS44       0.1677
    109  C          8.8540   30.4970   -1.2440 C.2    44  CYS44       0.2270
    110  O          9.7260   29.9880   -1.9390 O.2    44  CYS44      -0.2867
    111  CB         6.5350   29.6000   -1.5400 C.3    44  CYS44       0.0956
    112  SG         5.3610   28.3320   -1.0100 S.3    44  CYS44      -0.0801
    113  N         12.0210   29.3030    0.3080 N.3    47  HIS47      -0.1226
    114  CA        12.3080   27.9810   -0.2230 C.3    47  HIS47       0.1752
    115  C         12.8970   28.0970   -1.6260 C.2    47  HIS47       0.2596
    116  O         13.8520   27.3990   -1.9580 O.2    47  HIS47      -0.2718
    117  CB        11.0200   27.1600   -0.2150 C.3    47  HIS47       0.0759
    118  CG        11.2000   25.7310   -0.6310 C.ar   47  HIS47       0.0818
    119  ND1       10.6920   25.2270   -1.8100 N.ar   47  HIS47      -0.2268
    120  CD2       11.8000   24.6940   -0.0080 C.ar   47  HIS47       0.1154
    121  CE1       10.9960   23.9440   -1.9050 C.ar   47  HIS47       0.1986
    122  NE2       11.6730   23.5970   -0.8270 N.ar   47  HIS47      -0.2212
    123  N         12.3310   28.9780   -2.4390 N.am   48  ASP48      -0.1974
    124  CA        12.8720   29.2400   -3.7710 C.3    48  ASP48       0.1709
    125  C         14.3140   29.7490   -3.6630 C.2    48  ASP48       0.2293
    126  O         15.1970   29.2950   -4.3860 O.2    48  ASP48      -0.2864
    127  CB        12.0320   30.2700   -4.5230 C.3    48  ASP48       0.1436
    128  CG        10.6490   29.7700   -4.8850 C.2    48  ASP48       0.3671
    129  OD1       10.3850   28.5560   -4.8090 O.co2  48  ASP48      -0.2456
    130  OD2        9.7500   30.5610   -5.2500 O.co2  48  ASP48      -0.2456
    131  N         16.6440   26.8260   -2.7190 N.3    51  TYR51      -0.1241
    132  CA        16.9940   26.0420   -3.8950 C.3    51  TYR51       0.1605
    133  C         17.9580   26.8380   -4.7880 C.2    51  TYR51       0.2264
    134  O         18.8680   26.2710   -5.4080 O.2    51  TYR51      -0.2867
    135  CB        15.7400   25.6990   -4.6860 C.3    51  TYR51       0.0534
    136  CG        14.9410   24.5070   -4.2080 C.ar   51  TYR51      -0.0201
    137  CD1       15.2480   23.8180   -3.0420 C.ar   51  TYR51      -0.0009
    138  CD2       13.8630   24.0780   -4.9520 C.ar   51  TYR51      -0.0009
    139  CE1       14.4920   22.7290   -2.6520 C.ar   51  TYR51       0.0417
    140  CE2       13.1060   23.0090   -4.5720 C.ar   51  TYR51       0.0417
    141  CZ        13.4230   22.3320   -3.4200 C.ar   51  TYR51       0.1957
    142  OH        12.6530   21.2520   -3.0570 O.3    51  TYR51      -0.2866
    143  N         14.1810   19.0050   -7.8560 N.3    60  LYS60      -0.1245
    144  CA        12.9270   18.4260   -8.3100 C.3    60  LYS60       0.1561
    145  C         12.9900   16.8930   -8.3150 C.2    60  LYS60       0.2260
    146  O         12.0210   16.2190   -7.9650 O.2    60  LYS60      -0.2867
    147  CB        12.5750   18.9610   -9.7010 C.3    60  LYS60       0.0271
    148  CG        12.4980   20.4870   -9.7420 C.3    60  LYS60       0.0035
    149  CD        11.1020   21.0380   -9.9000 C.3    60  LYS60       0.0206
    150  CE        11.1500   22.3490  -10.6690 C.3    60  LYS60       0.1093
    151  NZ        11.9930   22.2260  -11.8890 N.3    60  LYS60      -0.1314
    152  N          5.4270   26.1780    6.6910 N.3    96  PHE96      -0.1241
    153  CA         4.0120   26.0320    6.3520 C.3    96  PHE96       0.1605
    154  C          3.2070   25.7260    7.6160 C.2    96  PHE96       0.2264
    155  O          2.1400   26.3010    7.8340 O.2    96  PHE96      -0.2867
    156  CB         3.7570   24.9290    5.3230 C.3    96  PHE96       0.0534
    157  CG         4.2690   25.2200    3.9330 C.ar   96  PHE96      -0.0203
    158  CD1        4.2750   26.4950    3.3930 C.ar   96  PHE96      -0.0042
    159  CD2        4.6950   24.1690    3.1370 C.ar   96  PHE96      -0.0042
    160  CE1        4.7370   26.7090    2.0980 C.ar   96  PHE96      -0.0003
    161  CE2        5.1560   24.3790    1.8490 C.ar   96  PHE96      -0.0003
    162  CZ         5.1800   25.6400    1.3270 C.ar   96  PHE96      -0.0000
@<TRIPOS>BOND
     1   100   102   ar
     2   100    98   ar
     3   102   101   ar
     4    98    97   ar
     5    98    96   ar
     6    97    95   ar
     7   101    99   ar
     8    96    99   ar
     9    96    94   ar
    10    95    94   ar
    11   151   150    1
    12    94    93    1
    13   150   149    1
    14    93    90    1
    15   106   105    1
    16    92    91    2
    17   149   148    1
    18   148   147    1
    19   147   144    1
    20    90    91    1
    21    90    89    1
    22    91   103   am
    23    88    87    2
    24   105   104    1
    25   145   144    1
    26   145   146    2
    27   144   143    1
    28     8     6    1
    29    89    87   am
    30    87    86    1
    31   103   104    1
    32    64    63    2
    33    48    46    1
    34    47    45    1
    35    15    14    1
    36    86    85    1
    37     6     5    1
    38     6     7    1
    39     5     2    1
    40    63    62    1
    41    46    45    1
    42    65    66    1
    43    65    62    1
    44    14    16    1
    45    14    13    1
    46    82    81    2
    47    45    42    1
    48    62    61    1
    49    85    81   am
    50    78    77    1
    51    76    77   ar
    52    76    74   ar
    53     1     2    1
    54    81    80    1
    55   134   133    2
    56     2     3    1
    57   130   128   ar
    58    13    10    1
    59    77    75   ar
    60    74    72   ar
    61     9     3   am
    62     9    10    1
    63    67    68    1
    64    70    69    2
    65    68    69    1
    66    68    71    1
    67   138   140   ar
    68   138   136   ar
    69    69    79   am
    70   128   129   ar
    71   128   127    1
    72    42    43    1
    73    42    41    1
    74   133   132    1
    75     3     4    2
    76   135   136    1
    77   135   132    1
    78    79    80    1
    79   140   141   ar
    80   127   124    1
    81    10    11    1
    82    61    51   am
    83    75    73   ar
    84   126   125    2
    85    43    44    2
    86    72    73   ar
    87    72    71    1
    88    80    83    1
    89   136   137   ar
    90   132   131    1
    91   124   125    1
    92   124   123    1
    93    41    38   am
    94    52    51    2
    95    51    50    1
    96   141   142    1
    97   141   139   ar
    98    83    84    1
    99    39    38    2
   100   137   139   ar
   101    11    12    2
   102    38    37    1
   103   123   115   am
   104    50    49    1
   105    50    53    1
   106   116   115    2
   107   110   109    2
   108    40    37    1
   109   121   119   ar
   110   121   122   ar
   111   119   118   ar
   112    24    26   ar
   113    24    22   ar
   114   115   114    1
   115    37    36    1
   116    84   112    1
   117   111   112    1
   118   111   108    1
   119    21    22    1
   120    21    18    1
   121    26    27   ar
   122   109   108    1
   123    53    54    1
   124    17    18    1
   125   122   120   ar
   126    22    23   ar
   127   108   107    1
   128   118   117    1
   129   118   120   ar
   130    18    19    1
   131    19    20    2
   132   114   117    1
   133   114   113    1
   134    27    25   ar
   135    35    33    1
   136    54    55   ar
   137    54    56   ar
   138    23    25   ar
   139    55    57   ar
   140    56    58   ar
   141   162   161   ar
   142   162   160   ar
   143    33    32    1
   144   161   159   ar
   145    32    34    1
   146    32    29    1
   147   160   158   ar
   148    57    59   ar
   149    58    59   ar
   150    59    60    1
   151   159   157   ar
   152    28    29    1
   153   158   157   ar
   154    29    30    1
   155   157   156    1
   156    30    31    2
   157   156   153    1
   158   153   152    1
   159   153   154    1
   160   154   155    2
