@<TRIPOS>MOLECULE
tmp/1tg5A00.pdb
 176 168 0 0 0
SMALL
GASTEIGER

@<TRIPOS>ATOM
      1  N         51.8390   39.0020   44.3280 N.3   187  HIS187     -0.1241
      2  CA        51.8340   37.6340   44.8340 C.3   187  HIS187      0.1621
      3  C         50.6540   36.8310   44.2950 C.2   187  HIS187      0.2264
      4  O         49.6590   37.3610   43.8130 O.2   187  HIS187     -0.2867
      5  CB        51.9040   37.5700   46.3410 C.3   187  HIS187      0.0745
      6  CG        50.9590   38.2910   47.2300 C.ar  187  HIS187      0.0817
      7  ND1       51.1140   39.6230   47.5660 N.ar  187  HIS187     -0.2268
      8  CD2       49.8520   37.8620   47.8890 C.ar  187  HIS187      0.1154
      9  CE1       50.1530   40.0030   48.3910 C.ar  187  HIS187      0.1986
     10  NE2       49.3930   38.9500   48.5750 N.ar  187  HIS187     -0.2212
     11  N         48.4600   33.4110   45.5820 N.3   189  VAL189     -0.1245
     12  CA        48.2430   32.6020   46.7760 C.3   189  VAL189      0.1561
     13  C         47.3480   31.3950   46.5290 C.2   189  VAL189      0.2260
     14  O         46.2820   31.5200   45.9280 O.2   189  VAL189     -0.2867
     15  CB        47.6290   33.4840   47.8820 C.3   189  VAL189      0.0252
     16  CG1       47.4250   32.6900   49.1620 C.3   189  VAL189      0.0019
     17  CG2       48.4970   34.7010   48.1730 C.3   189  VAL189      0.0019
     18  N         43.2420   30.1660   59.5420 N.3   216  LEU216     -0.1245
     19  CA        44.2490   29.7140   58.5960 C.3   216  LEU216      0.1561
     20  C         45.6500   29.6800   59.1960 C.2   216  LEU216      0.2260
     21  O         45.9880   30.3600   60.1590 O.2   216  LEU216     -0.2867
     22  CB        44.3130   30.5360   57.3200 C.3   216  LEU216      0.0270
     23  CG        45.0690   31.8620   57.2010 C.3   216  LEU216      0.0019
     24  CD1       44.7490   32.6390   55.9120 C.3   216  LEU216      0.0001
     25  CD2       44.5220   32.7670   58.3430 C.3   216  LEU216      0.0001
     26  N         49.4310   30.0450   57.2260 N.3   218  SER218     -0.1202
     27  CA        49.9630   30.3930   55.9160 C.3   218  SER218      0.2020
     28  C         51.4880   30.3790   55.9040 C.2   218  SER218      0.2619
     29  O         52.1290   30.4610   56.9490 O.2   218  SER218     -0.2717
     30  CB        49.4940   31.7860   55.4900 C.3   218  SER218      0.2103
     31  OG        48.0870   31.8880   55.4710 O.3   218  SER218     -0.2182
     32  N         52.0520   30.3040   54.7060 N.am  219  ALA219     -0.1965
     33  CA        53.4970   30.4060   54.5390 C.3   219  ALA219      0.1728
     34  C         53.7960   31.0060   53.1700 C.2   219  ALA219      0.2616
     35  O         53.0300   30.8070   52.2280 O.2   219  ALA219     -0.2715
     36  CB        54.1560   29.0500   54.6960 C.3   219  ALA219      0.0334
     37  N         54.8740   31.7760   53.0840 N.am  220  VAL220     -0.1977
     38  CA        55.2380   32.4250   51.8280 C.3   220  VAL220      0.1596
     39  C         56.5410   31.8460   51.2850 C.2   220  VAL220      0.2287
     40  O         57.5640   31.8410   51.9700 O.2   220  VAL220     -0.2864
     41  CB        55.3680   33.9490   51.9940 C.3   220  VAL220      0.0276
     42  CG1       55.7580   34.6080   50.6760 C.3   220  VAL220      0.0022
     43  CG2       54.0770   34.5740   52.5110 C.3   220  VAL220      0.0022
     44  N         52.6660   32.2790   48.1260 N.3   231  PRO231     -0.2116
     45  CA        52.1290   31.8820   49.4110 C.3   231  PRO231      0.1372
     46  C         51.0640   30.8040   49.3150 C.2   231  PRO231      0.2244
     47  O         50.4220   30.5650   48.2960 O.2   231  PRO231     -0.2868
     48  CB        51.5540   33.1480   50.0270 C.3   231  PRO231      0.0268
     49  CG        51.8640   34.2590   49.0950 C.3   231  PRO231      0.0207
     50  CD        52.1620   33.6220   47.7660 C.3   231  PRO231      0.0892
     51  N         48.0480   28.7700   51.9040 N.3   233  ASN233     -0.1240
     52  CA        47.2340   28.6850   53.0980 C.3   233  ASN233      0.1653
     53  C         46.7090   27.2620   53.2920 C.2   233  ASN233      0.2266
     54  O         46.4640   26.5570   52.3160 O.2   233  ASN233     -0.2867
     55  CB        45.9670   29.5510   52.9780 C.3   233  ASN233      0.1155
     56  CG        46.2430   30.9820   52.5920 C.2   233  ASN233      0.2627
     57  OD1       47.2180   31.5930   53.0760 O.2   233  ASN233     -0.2716
     58  ND2       45.4220   31.5370   51.7350 N.am  233  ASN233     -0.0877
     59  N         43.8060   31.0370   45.4310 N.3   256  GLN256     -0.1231
     60  CA        42.9020   31.8310   46.2470 C.3   256  GLN256      0.1698
     61  C         42.8140   33.2820   45.7830 C.2   256  GLN256      0.2592
     62  O         41.7100   33.7490   45.4940 O.2   256  GLN256     -0.2718
     63  CB        43.3280   31.8060   47.7200 C.3   256  GLN256      0.0381
     64  CG        42.3780   32.5530   48.6440 C.3   256  GLN256      0.0905
     65  CD        43.0540   33.0480   49.9040 C.2   256  GLN256      0.2608
     66  OE1       44.2230   33.4360   49.8860 O.2   256  GLN256     -0.2717
     67  NE2       42.3220   33.0460   51.0120 N.am  256  GLN256     -0.0878
     68  N         43.9440   33.9900   45.7590 N.am  257  HIS257     -0.1976
     69  CA        43.8960   35.3930   45.3510 C.3   257  HIS257      0.1656
     70  C         45.1310   35.8550   44.5890 C.2   257  HIS257      0.2291
     71  O         46.2430   35.3620   44.7430 O.2   257  HIS257     -0.2864
     72  CB        43.5880   36.3050   46.5260 C.3   257  HIS257      0.0771
     73  CG        44.6180   36.5840   47.5630 C.ar  257  HIS257      0.0820
     74  ND1       44.8030   35.8090   48.6880 N.ar  257  HIS257     -0.2267
     75  CD2       45.5100   37.6010   47.6710 C.ar  257  HIS257      0.1154
     76  CE1       45.7670   36.3210   49.4300 C.ar  257  HIS257      0.1986
     77  NE2       46.2130   37.4050   48.8310 N.ar  257  HIS257     -0.2212
     78  N         42.4170   49.4390   53.2630 N.3   317  LEU317     -0.1245
     79  CA        42.9590   49.0710   54.5680 C.3   317  LEU317      0.1561
     80  C         44.4710   49.2520   54.5600 C.2   317  LEU317      0.2260
     81  O         45.1380   49.1570   53.5330 O.2   317  LEU317     -0.2867
     82  CB        42.5300   47.6670   54.9850 C.3   317  LEU317      0.0270
     83  CG        41.0440   47.3730   54.7530 C.3   317  LEU317      0.0019
     84  CD1       40.8430   46.6770   53.4170 C.3   317  LEU317      0.0001
     85  CD2       40.3850   46.6050   55.8690 C.3   317  LEU317      0.0001
     86  N         46.0920   48.1120   50.9550 N.3   328  GLN328     -0.1245
     87  CA        45.4190   46.9680   50.3520 C.3   328  GLN328      0.1566
     88  C         43.8990   47.0710   50.4000 C.2   328  GLN328      0.2260
     89  O         43.3110   47.7690   51.2190 O.2   328  GLN328     -0.2867
     90  CB        45.8630   45.6740   51.0410 C.3   328  GLN328      0.0367
     91  CG        45.3450   45.4950   52.4550 C.3   328  GLN328      0.0905
     92  CD        45.9220   44.2910   53.1660 C.2   328  GLN328      0.2608
     93  OE1       45.7730   44.1530   54.3830 O.2   328  GLN328     -0.2717
     94  NE2       46.5890   43.4000   52.4410 N.am  328  GLN328     -0.0878
     95  N         40.3320   44.3130   49.0030 N.3   330  PHE330     -0.1241
     96  CA        39.9600   43.0270   48.4350 C.3   330  PHE330      0.1605
     97  C         38.6490   43.0530   47.6650 C.2   330  PHE330      0.2264
     98  O         37.6660   43.6230   48.1400 O.2   330  PHE330     -0.2867
     99  CB        39.8480   41.9840   49.5690 C.3   330  PHE330      0.0534
    100  CG        41.1670   41.8570   50.2890 C.ar  330  PHE330     -0.0203
    101  CD1       41.4190   42.5640   51.4500 C.ar  330  PHE330     -0.0042
    102  CD2       42.1690   41.0750   49.7410 C.ar  330  PHE330     -0.0042
    103  CE1       42.6460   42.4670   52.0780 C.ar  330  PHE330     -0.0003
    104  CE2       43.3890   40.9670   50.3740 C.ar  330  PHE330     -0.0003
    105  CZ        43.6310   41.6720   51.5340 C.ar  330  PHE330     -0.0000
    106  N         39.5870   35.4880   44.4130 N.3   341  PHE341     -0.1241
    107  CA        39.4030   36.9310   44.4700 C.3   341  PHE341      0.1605
    108  C         40.6950   37.6660   44.1240 C.2   341  PHE341      0.2264
    109  O         41.7540   37.0810   43.9190 O.2   341  PHE341     -0.2867
    110  CB        38.8550   37.3880   45.8140 C.3   341  PHE341      0.0534
    111  CG        39.6090   37.0070   47.0490 C.ar  341  PHE341     -0.0203
    112  CD1       40.5140   37.8780   47.6320 C.ar  341  PHE341     -0.0042
    113  CD2       39.3930   35.7780   47.6530 C.ar  341  PHE341     -0.0042
    114  CE1       41.1980   37.5290   48.7810 C.ar  341  PHE341     -0.0003
    115  CE2       40.0740   35.4200   48.8000 C.ar  341  PHE341     -0.0003
    116  CZ        40.9780   36.2970   49.3640 C.ar  341  PHE341     -0.0000
    117  N         43.2350   41.1060   45.0250 N.3   343  GLU343     -0.1245
    118  CA        43.6810   42.1100   45.9810 C.3   343  GLU343      0.1567
    119  C         44.4250   43.2210   45.2440 C.2   343  GLU343      0.2260
    120  O         45.2840   42.9390   44.4090 O.2   343  GLU343     -0.2867
    121  CB        44.5830   41.4860   47.0440 C.3   343  GLU343      0.0388
    122  CG        45.2740   42.4840   47.9590 C.3   343  GLU343      0.1160
    123  CD        46.2140   41.8400   48.9610 C.2   343  GLU343      0.3649
    124  OE1       46.4930   40.6360   48.8050 O.co2 343  GLU343     -0.2457
    125  OE2       46.6460   42.5300   49.9050 O.co2 343  GLU343     -0.2457
    126  N         51.7340   41.5440   54.5010 N.3   359  PHE359     -0.1227
    127  CA        50.6390   41.1110   53.6390 C.3   359  PHE359      0.1736
    128  C         49.2920   41.4720   54.2580 C.2   359  PHE359      0.2596
    129  O         48.2300   41.1200   53.7520 O.2   359  PHE359     -0.2718
    130  CB        50.7300   39.6050   53.3660 C.3   359  PHE359      0.0547
    131  CG        51.9640   39.2050   52.6010 C.ar  359  PHE359     -0.0202
    132  CD1       53.1100   38.7960   53.2630 C.ar  359  PHE359     -0.0042
    133  CD2       51.9920   39.2860   51.2200 C.ar  359  PHE359     -0.0042
    134  CE1       54.2540   38.4640   52.5670 C.ar  359  PHE359     -0.0003
    135  CE2       53.1280   38.9440   50.5140 C.ar  359  PHE359     -0.0003
    136  CZ        54.2610   38.5320   51.1880 C.ar  359  PHE359     -0.0000
    137  N         49.3730   42.1990   55.3690 N.am  360  GLY360     -0.1942
    138  CA        48.1820   42.6480   56.0650 C.3   360  GLY360      0.2014
    139  C         47.7720   41.7240   57.1910 C.2   360  GLY360      0.2638
    140  O         46.6080   41.7860   57.6050 O.2   360  GLY360     -0.2714
    141  N         48.6790   40.9090   57.7430 N.am  361  LYS361     -0.1977
    142  CA        48.3390   40.1310   58.9340 C.3   361  LYS361      0.1596
    143  C         47.7640   41.0440   60.0070 C.2   361  LYS361      0.2287
    144  O         46.7780   40.6980   60.6540 O.2   361  LYS361     -0.2864
    145  CB        49.4870   39.3280   59.5170 C.3   361  LYS361      0.0298
    146  CG        49.7500   37.9120   59.0620 C.3   361  LYS361      0.0038
    147  CD        50.6990   37.8980   57.8680 C.3   361  LYS361      0.0206
    148  CE        51.1590   36.4790   57.5590 C.3   361  LYS361      0.1093
    149  NZ        52.2590   36.4630   56.5630 N.3   361  LYS361     -0.1314
    150  N         45.9830   43.7860   59.6970 N.3   363  ASN363     -0.1225
    151  CA        44.6210   44.1970   59.3990 C.3   363  ASN363      0.1785
    152  C         43.5530   43.2930   59.9840 C.2   363  ASN363      0.2597
    153  O         42.5450   43.8040   60.4790 O.2   363  ASN363     -0.2718
    154  CB        44.4260   44.3930   57.8880 C.3   363  ASN363      0.1169
    155  CG        44.5200   45.8780   57.5670 C.2   363  ASN363      0.2627
    156  OD1       43.9620   46.6960   58.2980 O.2   363  ASN363     -0.2716
    157  ND2       45.2190   46.2010   56.4920 N.am  363  ASN363     -0.0877
    158  N         43.7320   41.9820   59.9730 N.am  364  PHE364     -0.1976
    159  CA        42.7640   41.0710   60.5550 C.3   364  PHE364      0.1639
    160  C         42.2000   41.5290   61.8930 C.2   364  PHE364      0.2290
    161  O         41.0100   41.8530   61.9610 O.2   364  PHE364     -0.2864
    162  CB        43.3810   39.6720   60.7030 C.3   364  PHE364      0.0560
    163  CG        42.4110   38.7410   61.3840 C.ar  364  PHE364     -0.0200
    164  CD1       41.3080   38.2640   60.7000 C.ar  364  PHE364     -0.0042
    165  CD2       42.5890   38.3850   62.7090 C.ar  364  PHE364     -0.0042
    166  CE1       40.4050   37.4190   61.3160 C.ar  364  PHE364     -0.0003
    167  CE2       41.6840   37.5490   63.3270 C.ar  364  PHE364     -0.0003
    168  CZ        40.5940   37.0620   62.6350 C.ar  364  PHE364     -0.0000
    169  N         40.6680   45.0460   61.9010 N.3   367  LEU367     -0.1245
    170  CA        39.3420   45.3500   61.3490 C.3   367  LEU367      0.1561
    171  C         38.3480   45.0300   62.4660 C.2   367  LEU367      0.2260
    172  O         37.7400   45.8640   63.1100 O.2   367  LEU367     -0.2867
    173  CB        38.9710   44.5390   60.1230 C.3   367  LEU367      0.0270
    174  CG        40.0350   44.2720   59.0650 C.3   367  LEU367      0.0019
    175  CD1       39.4000   43.7530   57.7830 C.3   367  LEU367      0.0001
    176  CD2       40.8540   45.5220   58.7930 C.3   367  LEU367      0.0001
@<TRIPOS>BOND
     1     4     3    2
     2   109   108    2
     3   108   107    1
     4     3     2    1
     5     1     2    1
     6   120   119    2
     7   106   107    1
     8   107   110    1
     9    70    71    2
    10    70    69    1
    11     2     5    1
    12   117   118    1
    13   119   118    1
    14    69    68    1
    15    69    72    1
    16    59    60    1
    17    62    61    2
    18    11    12    1
    19    68    61   am
    20    61    60    1
    21   110   111    1
    22    14    13    2
    23   118   121    1
    24    60    63    1
    25     5     6    1
    26    72    73    1
    27    13    12    1
    28    12    15    1
    29   121   122    1
    30   111   112   ar
    31   111   113   ar
    32     6     7   ar
    33     6     8   ar
    34    73    75   ar
    35    73    74   ar
    36     7     9   ar
    37   112   114   ar
    38   113   115   ar
    39    97    98    2
    40    97    96    1
    41    75    77   ar
    42    63    64    1
    43    50    44    1
    44    50    49    1
    45    15    17    1
    46    15    16    1
    47     8    10   ar
    48   122   123    1
    49    44    45    1
    50    47    46    2
    51     9    10   ar
    52    96    95    1
    53    96    99    1
    54    64    65    1
    55    74    76   ar
    56   114   116   ar
    57   115   116   ar
    58   124   123   ar
    59    77    76   ar
    60   123   125   ar
    61    49    48    1
    62    46    45    1
    63    45    48    1
    64    99   100    1
    65   102   100   ar
    66   102   104   ar
    67    66    65    2
    68    65    67   am
    69   100   101   ar
    70    87    88    1
    71    87    86    1
    72    87    90    1
    73   104   105   ar
    74    88    89    2
    75   135   136   ar
    76   135   133   ar
    77    42    41    1
    78    90    91    1
    79   136   134   ar
    80   133   131   ar
    81    39    38    1
    82    39    40    2
    83   101   103   ar
    84   105   103   ar
    85    58    56   am
    86    38    41    1
    87    38    37    1
    88    51    52    1
    89    41    43    1
    90    35    34    2
    91    54    53    2
    92    94    92   am
    93    91    92    1
    94   134   132   ar
    95    56    55    1
    96    56    57    2
    97   131   132   ar
    98   131   130    1
    99    55    52    1
   100    37    34   am
   101    52    53    1
   102    92    93    2
   103    34    33    1
   104    78    79    1
   105   130   127    1
   106    84    83    1
   107    81    80    2
   108   127   128    1
   109   127   126    1
   110   129   128    2
   111   128   137   am
   112    33    36    1
   113    33    32    1
   114    80    79    1
   115    79    82    1
   116    32    28   am
   117    83    82    1
   118    83    85    1
   119   137   138    1
   120    31    30    1
   121    30    27    1
   122    28    27    1
   123    28    29    2
   124    24    23    1
   125    27    26    1
   126   138   139    1
   127   157   155   am
   128   149   148    1
   129   139   140    2
   130   139   141   am
   131    23    22    1
   132    23    25    1
   133    22    19    1
   134   148   147    1
   135   155   154    1
   136   155   156    2
   137   141   142    1
   138   175   174    1
   139   147   146    1
   140   154   151    1
   141    19    20    1
   142    19    18    1
   143   176   174    1
   144   142   145    1
   145   142   143    1
   146   146   145    1
   147   174   173    1
   148    20    21    2
   149   151   150    1
   150   151   152    1
   151   158   152   am
   152   158   159    1
   153   152   153    2
   154   143   144    2
   155   173   170    1
   156   159   162    1
   157   159   160    1
   158   164   166   ar
   159   164   163   ar
   160   162   163    1
   161   166   168   ar
   162   170   169    1
   163   170   171    1
   164   163   165   ar
   165   160   161    2
   166   171   172    2
   167   168   167   ar
   168   165   167   ar
