@<TRIPOS>MOLECULE
tmp/1tg6A00.pdb
 96 93 0 0 0
SMALL
GASTEIGER

@<TRIPOS>ATOM
      1  N        -28.5420   23.0120    4.7450 N.3    57  PRO57      -0.2102
      2  CA       -28.3050   23.1210    3.3070 C.3    57  PRO57       0.1504
      3  C        -28.8960   21.9040    2.5990 C.2    57  PRO57       0.2576
      4  O        -28.8370   21.8010    1.3750 O.2    57  PRO57      -0.2718
      5  CB       -26.7860   23.1670    3.2200 C.3    57  PRO57       0.0282
      6  CG       -26.3710   22.2060    4.3070 C.3    57  PRO57       0.0208
      7  CD       -27.3240   22.5610    5.4540 C.3    57  PRO57       0.0893
      8  N        -29.4810   20.9970    3.3820 N.am   58  GLY58      -0.1943
      9  CA       -30.0640   19.7830    2.8340 C.3    58  GLY58       0.2017
     10  C        -29.2160   18.5730    3.2160 C.2    58  GLY58       0.2678
     11  O        -28.4990   18.6150    4.2150 O.2    58  GLY58      -0.2710
     12  N        -29.2900   17.5000    2.4330 N.am   59  GLY59      -0.1729
     13  CA       -28.5030   16.3140    2.7350 C.2    59  GLY59       0.1340
     14  C        -28.9500   15.0460    2.0260 C.2    59  GLY59       0.2521
     15  O        -29.4570   15.0950    0.9100 O.2    59  GLY59      -0.2816
     16  N        -31.1280   12.0870    0.8120 N.3    61  VAL61      -0.1245
     17  CA       -32.5560   11.9320    0.5870 C.3    61  VAL61       0.1561
     18  C        -33.2250   10.9400    1.5340 C.2    61  VAL61       0.2260
     19  O        -34.2030   11.2860    2.2050 O.2    61  VAL61      -0.2867
     20  CB       -32.8490   11.5050   -0.8620 C.3    61  VAL61       0.0252
     21  CG1      -34.3510   11.3010   -1.0510 C.3    61  VAL61       0.0019
     22  CG2      -32.3290   12.5660   -1.8220 C.3    61  VAL61       0.0019
     23  N        -32.8920   22.3470   -0.1720 N.3    88  SER88      -0.1202
     24  CA       -33.0920   20.9750   -0.5850 C.3    88  SER88       0.2020
     25  C        -33.9340   20.1480    0.3870 C.2    88  SER88       0.2618
     26  O        -35.0660   20.5070    0.6760 O.2    88  SER88      -0.2717
     27  CB       -31.7430   20.3160   -0.8000 C.3    88  SER88       0.2103
     28  OG       -31.9630   19.0670   -1.3980 O.3    88  SER88      -0.2182
     29  N        -33.3970   19.0400    0.8970 N.am   89  MET89      -0.1979
     30  CA       -34.1870   18.2240    1.8240 C.3    89  MET89       0.1605
     31  C        -34.6560   19.0420    3.0250 C.2    89  MET89       0.2287
     32  O        -35.6690   18.7230    3.6420 O.2    89  MET89      -0.2864
     33  CB       -33.4010   16.9990    2.3010 C.3    89  MET89       0.0413
     34  CG       -33.2330   15.8980    1.2460 C.3    89  MET89       0.0598
     35  SD       -34.7910   15.3800    0.4760 S.3    89  MET89      -0.1393
     36  CE       -35.4640   14.3400    1.7230 C.3    89  MET89       0.0692
     37  N        -34.9000   21.6800   -5.3760 N.3   113  HIS113     -0.1226
     38  CA       -34.3310   21.1720   -6.6130 C.3   113  HIS113      0.1752
     39  C        -34.4270   19.6670   -6.6390 C.2   113  HIS113      0.2596
     40  O        -34.6630   19.0280   -5.6130 O.2   113  HIS113     -0.2718
     41  CB       -32.8740   21.6220   -6.8060 C.3   113  HIS113      0.0759
     42  CG       -31.9190   21.0910   -5.7860 C.ar  113  HIS113      0.0818
     43  ND1      -30.5960   21.4760   -5.7480 N.ar  113  HIS113     -0.2268
     44  CD2      -32.0840   20.2090   -4.7720 C.ar  113  HIS113      0.1154
     45  CE1      -29.9880   20.8580   -4.7530 C.ar  113  HIS113      0.1986
     46  NE2      -30.8680   20.0820   -4.1450 N.ar  113  HIS113     -0.2212
     47  N        -34.2590   19.1070   -7.8250 N.am  114  GLN114     -0.1966
     48  CA       -34.3410   17.6750   -8.0070 C.3   114  GLN114      0.1718
     49  C        -33.1200   17.0210   -7.3730 C.2   114  GLN114      0.2458
     50  O        -32.0810   17.6620   -7.1920 O.2   114  GLN114     -0.2730
     51  CB       -34.4150   17.3470   -9.5060 C.3   114  GLN114      0.0407
     52  CG       -33.1850   17.7530  -10.3000 C.3   114  GLN114      0.0908
     53  CD       -33.2220   17.2280  -11.7260 C.2   114  GLN114      0.2608
     54  OE1      -33.4420   16.0390  -11.9490 O.2   114  GLN114     -0.2717
     55  NE2      -33.0000   18.1110  -12.6970 N.am  114  GLN114     -0.0878
     56  N        -33.2310   15.7340   -7.0180 N.am  115  PRO115     -0.2716
     57  CA       -32.0880   15.0490   -6.4060 C.3   115  PRO115      0.1536
     58  C        -30.9120   14.8830   -7.3670 C.2   115  PRO115      0.2599
     59  O        -31.0730   14.9320   -8.5870 O.2   115  PRO115     -0.2715
     60  CB       -32.6840   13.7090   -5.9600 C.3   115  PRO115      0.0310
     61  CG       -33.7670   13.4650   -6.9690 C.3   115  PRO115      0.0237
     62  CD       -34.4000   14.8380   -7.1100 C.3   115  PRO115      0.0939
     63  N        -29.7250   14.7220   -6.7990 N.am  116  SER116     -0.1950
     64  CA       -28.5100   14.5270   -7.5720 C.3   116  SER116      0.1924
     65  C        -27.8330   13.2870   -7.0190 C.2   116  SER116      0.2314
     66  O        -28.1810   12.8120   -5.9330 O.2   116  SER116     -0.2863
     67  CB       -27.5650   15.7240   -7.4350 C.3   116  SER116      0.2116
     68  OG       -27.9590   16.7880   -8.2820 O.3   116  SER116     -0.2180
     69  N        -40.2500   12.6580   -4.3800 N.3   140  LEU140     -0.1245
     70  CA       -40.0930   13.9710   -3.7640 C.3   140  LEU140      0.1561
     71  C        -41.0640   14.9780   -4.3860 C.2   140  LEU140      0.2260
     72  O        -41.6810   15.7770   -3.6800 O.2   140  LEU140     -0.2867
     73  CB       -38.6420   14.4490   -3.9130 C.3   140  LEU140      0.0270
     74  CG       -37.6300   13.5500   -3.1810 C.3   140  LEU140      0.0019
     75  CD1      -36.2220   13.8870   -3.6260 C.3   140  LEU140      0.0001
     76  CD2      -37.7810   13.7060   -1.6730 C.3   140  LEU140      0.0001
     77  N        -43.7470   17.2670   -2.3050 N.3   144  TYR144     -0.1241
     78  CA       -43.8550   18.7210   -2.3780 C.3   144  TYR144      0.1605
     79  C        -45.2460   19.1100   -2.8920 C.2   144  TYR144      0.2264
     80  O        -45.8610   20.0530   -2.3950 O.2   144  TYR144     -0.2867
     81  CB       -42.7810   19.3150   -3.3010 C.3   144  TYR144      0.0534
     82  CG       -41.4280   19.5340   -2.6460 C.ar  144  TYR144     -0.0201
     83  CD1      -40.4440   18.5430   -2.6670 C.ar  144  TYR144     -0.0009
     84  CD2      -41.1300   20.7420   -2.0090 C.ar  144  TYR144     -0.0009
     85  CE1      -39.1940   18.7530   -2.0720 C.ar  144  TYR144      0.0417
     86  CE2      -39.8890   20.9630   -1.4120 C.ar  144  TYR144      0.0417
     87  CZ       -38.9220   19.9650   -1.4480 C.ar  144  TYR144      0.1957
     88  OH       -37.6810   20.1990   -0.8890 O.3   144  TYR144     -0.2866
     89  N        -38.5070   22.6210   -9.9430 N.3   159  MET159     -0.1245
     90  CA       -37.3480   21.9080   -9.4060 C.3   159  MET159      0.1570
     91  C        -36.3240   21.3410  -10.3880 C.2   159  MET159      0.2261
     92  O        -35.3540   20.6970   -9.9740 O.2   159  MET159     -0.2867
     93  CB       -37.8400   20.8040   -8.4660 C.3   159  MET159      0.0387
     94  CG       -38.5300   21.3600   -7.2310 C.3   159  MET159      0.0595
     95  SD       -39.1980   20.1160   -6.1060 S.3   159  MET159     -0.1393
     96  CE       -37.6810   19.4100   -5.4690 C.3   159  MET159      0.0692
@<TRIPOS>BOND
     1    55    53   am
     2    54    53    2
     3    53    52    1
     4    91    92    2
     5    91    90    1
     6    52    51    1
     7    89    90    1
     8    51    48    1
     9    90    93    1
    10    59    58    2
    11    93    94    1
    12    68    67    1
    13    48    47    1
    14    48    49    1
    15    47    39   am
    16    64    67    1
    17    64    65    1
    18    64    63    1
    19    49    50    2
    20    49    56   am
    21    58    63   am
    22    58    57    1
    23    94    95    1
    24    62    56    1
    25    62    61    1
    26    65    66    2
    27    56    57    1
    28    61    60    1
    29    41    38    1
    30    41    42    1
    31    39    38    1
    32    39    40    2
    33    38    37    1
    34    57    60    1
    35    95    96    1
    36    42    43   ar
    37    42    44   ar
    38    43    45   ar
    39    44    46   ar
    40    45    46   ar
    41    71    70    1
    42    71    72    2
    43    69    70    1
    44    73    70    1
    45    73    74    1
    46    75    74    1
    47    81    82    1
    48    81    78    1
    49    74    76    1
    50    79    80    2
    51    79    78    1
    52    83    82   ar
    53    83    85   ar
    54    82    84   ar
    55    78    77    1
    56    85    87   ar
    57    84    86   ar
    58    22    20    1
    59    87    86   ar
    60    87    88    1
    61    28    27    1
    62    21    20    1
    63    20    17    1
    64    27    24    1
    65    24    23    1
    66    24    25    1
    67    25    26    2
    68    25    29   am
    69    35    34    1
    70    35    36    1
    71    17    16    1
    72    17    18    1
    73    29    30    1
    74    15    14    2
    75    34    33    1
    76     4     3    2
    77    18    19    2
    78    30    33    1
    79    30    31    1
    80    14    13    1
    81    12    13    2
    82    12    10    1
    83     3     2    1
    84     3     8   am
    85     9    10    1
    86     9     8    1
    87    31    32    2
    88    10    11    2
    89     5     2    1
    90     5     6    1
    91     2     1    1
    92     6     7    1
    93     1     7    1
