@<TRIPOS>MOLECULE
tmp/1tgmA00.pdb
 97 94 0 0 0
SMALL
GASTEIGER

@<TRIPOS>ATOM
      1  N         43.2730   37.5910    5.2510 N.3     2  LEU2       -0.1231
      2  CA        43.5880   36.1810    5.0500 C.3     2  LEU2        0.1693
      3  C         42.4860   35.4230    4.3310 C.2     2  LEU2        0.2591
      4  O         42.7570   34.4550    3.6260 O.2     2  LEU2       -0.2718
      5  CB        43.8920   35.5160    6.3870 C.3     2  LEU2        0.0284
      6  CG        45.3400   35.6580    6.8380 C.3     2  LEU2        0.0019
      7  CD1       45.8050   37.0860    6.7570 C.3     2  LEU2        0.0001
      8  CD2       45.4780   35.1440    8.2500 C.3     2  LEU2        0.0001
      9  N         41.2490   35.8770    4.4860 N.am    3  LEU3       -0.1980
     10  CA        40.1180   35.2310    3.8410 C.3     3  LEU3        0.1596
     11  C         40.1890   35.3860    2.3290 C.2     3  LEU3        0.2287
     12  O         39.9650   34.4220    1.5990 O.2     3  LEU3       -0.2864
     13  CB        38.7910   35.7890    4.3650 C.3     3  LEU3        0.0297
     14  CG        38.0160   34.8740    5.3190 C.3     3  LEU3        0.0022
     15  CD1       38.3090   33.3990    5.0540 C.3     3  LEU3        0.0001
     16  CD2       38.3060   35.2040    6.7650 C.3     3  LEU3        0.0001
     17  N         42.9760   36.3030    0.6600 N.3     5  PHE5       -0.1227
     18  CA        44.2570   35.7660    0.2200 C.3     5  PHE5        0.1736
     19  C         44.1830   34.2460    0.0070 C.2     5  PHE5        0.2596
     20  O         44.6370   33.7340   -1.0180 O.2     5  PHE5       -0.2718
     21  CB        45.3620   36.1140    1.2170 C.3     5  PHE5        0.0547
     22  CG        46.7450   35.8380    0.7140 C.ar    5  PHE5       -0.0202
     23  CD1       47.0900   36.0710   -0.6020 C.ar    5  PHE5       -0.0042
     24  CD2       47.6960   35.3260    1.5530 C.ar    5  PHE5       -0.0042
     25  CE1       48.3670   35.8010   -1.0540 C.ar    5  PHE5       -0.0003
     26  CE2       48.9730   35.0580    1.1110 C.ar    5  PHE5       -0.0003
     27  CZ        49.3090   35.2930   -0.1980 C.ar    5  PHE5       -0.0000
     28  N         43.6090   33.5300    0.9770 N.am    6  GLY6       -0.1957
     29  CA        43.4520   32.0880    0.8770 C.3     6  GLY6        0.1869
     30  C         42.6290   31.6770   -0.3190 C.2     6  GLY6        0.2309
     31  O         42.9180   30.6700   -0.9630 O.2     6  GLY6       -0.2863
     32  N         44.6820   32.1500   -3.5230 N.3     9  ILE9       -0.1245
     33  CA        45.6790   31.0880   -3.6250 C.3     9  ILE9        0.1561
     34  C         45.0540   29.8190   -4.2030 C.2     9  ILE9        0.2260
     35  O         45.5670   29.2450   -5.1720 O.2     9  ILE9       -0.2867
     36  CB        46.3190   30.8110   -2.2490 C.3     9  ILE9        0.0252
     37  CG1       47.1360   32.0310   -1.8040 C.3     9  ILE9        0.0019
     38  CG2       47.2070   29.5700   -2.3070 C.3     9  ILE9        0.0019
     39  CD1       47.7350   31.9140   -0.4230 C.3     9  ILE9        0.0001
     40  N         45.5620   27.1410    1.0540 N.3    17  ALA17      -0.1231
     41  CA        46.5740   27.9390    1.7500 C.3    17  ALA17       0.1694
     42  C         47.0950   27.2340    3.0000 C.2    17  ALA17       0.2591
     43  O         48.3010   27.1740    3.2190 O.2    17  ALA17      -0.2718
     44  CB        46.0220   29.3050    2.0860 C.3    17  ALA17       0.0304
     45  N         46.1870   26.7160    3.8230 N.am   18  ILE18      -0.1980
     46  CA        46.5680   25.8900    4.9650 C.3    18  ILE18       0.1595
     47  C         46.2250   24.4850    4.5120 C.2    18  ILE18       0.2287
     48  O         45.0750   24.2400    4.1590 O.2    18  ILE18      -0.2864
     49  CB        45.7330   26.2000    6.2340 C.3    18  ILE18       0.0276
     50  CG1       45.9030   27.6440    6.6710 C.3    18  ILE18       0.0022
     51  CG2       46.1260   25.2730    7.3740 C.3    18  ILE18       0.0022
     52  CD1       45.1390   28.5860    5.8170 C.3    18  ILE18       0.0001
     53  N         50.7310   26.4810    2.1000 N.3    21  TYR21      -0.1227
     54  CA        51.5300   27.7010    2.1510 C.3    21  TYR21       0.1736
     55  C         51.5760   28.3780    3.5220 C.2    21  TYR21       0.2596
     56  O         51.9870   29.5390    3.6230 O.2    21  TYR21      -0.2718
     57  CB        51.0060   28.7000    1.1190 C.3    21  TYR21       0.0548
     58  CG        51.1880   28.2460   -0.2950 C.ar   21  TYR21      -0.0200
     59  CD1       52.4210   28.3620   -0.9230 C.ar   21  TYR21      -0.0009
     60  CD2       50.1360   27.6930   -1.0090 C.ar   21  TYR21      -0.0009
     61  CE1       52.5940   27.9510   -2.2280 C.ar   21  TYR21       0.0417
     62  CE2       50.3020   27.2830   -2.3080 C.ar   21  TYR21       0.0417
     63  CZ        51.5350   27.4150   -2.9130 C.ar   21  TYR21       0.1957
     64  OH        51.6980   27.0030   -4.2090 O.3    21  TYR21      -0.2866
     65  N         51.1800   27.6650    4.5730 N.am   22  SER22      -0.1952
     66  CA        51.1570   28.2490    5.9140 C.3    22  SER22       0.1924
     67  C         52.3720   27.8900    6.7790 C.2    22  SER22       0.2314
     68  O         52.5960   28.5260    7.8020 O.2    22  SER22      -0.2863
     69  CB        49.8660   27.8550    6.6430 C.3    22  SER22       0.2116
     70  OG        49.6950   26.4500    6.6600 O.3    22  SER22      -0.2180
     71  N         54.1520   31.9980    5.9670 N.3    29  GLY29      -0.1210
     72  CA        53.4070   31.9170    7.2000 C.3    29  GLY29       0.1956
     73  C         54.2560   32.4570    8.3080 C.2    29  GLY29       0.2611
     74  O         55.1860   33.2350    8.0910 O.2    29  GLY29      -0.2717
     75  N         53.9270   32.0430    9.5150 N.am   30  TRP30      -0.1976
     76  CA        54.7030   32.4410   10.6530 C.3    30  TRP30       0.1640
     77  C         56.1780   32.3470   10.2470 C.2    30  TRP30       0.2290
     78  O         56.6760   31.2550    9.9600 O.2    30  TRP30      -0.2864
     79  CB        54.3520   31.5500   11.8350 C.3    30  TRP30       0.0576
     80  CG        54.3260   32.3650   13.0240 C.ar   30  TRP30       0.0006
     81  CD1       53.5310   33.4470   13.2500 C.ar   30  TRP30       0.0946
     82  CD2       55.1970   32.2600   14.1390 C.ar   30  TRP30       0.0152
     83  NE1       53.8330   34.0040   14.4680 N.ar   30  TRP30      -0.2442
     84  CE2       54.8570   33.2900   15.0340 C.ar   30  TRP30       0.0810
     85  CE3       56.2230   31.3800   14.4870 C.ar   30  TRP30       0.0012
     86  CZ2       55.5030   33.4610   16.2500 C.ar   30  TRP30       0.0191
     87  CZ3       56.8620   31.5490   15.6870 C.ar   30  TRP30       0.0001
     88  CH2       56.5020   32.5820   16.5580 C.ar   30  TRP30       0.0015
     89  N         46.0230   41.3620    7.6090 N.3    60  LYS60      -0.1245
     90  CA        45.4150   40.0870    7.9780 C.3    60  LYS60       0.1561
     91  C         43.8940   40.1610    8.1340 C.2    60  LYS60       0.2260
     92  O         43.1830   39.2000    7.8140 O.2    60  LYS60      -0.2867
     93  CB        45.9870   39.5590    9.2930 C.3    60  LYS60       0.0271
     94  CG        47.4030   39.0690    9.2530 C.3    60  LYS60       0.0035
     95  CD        47.7680   38.6210   10.6640 C.3    60  LYS60       0.0206
     96  CE        49.0750   37.8780   10.7370 C.3    60  LYS60       0.1093
     97  NZ        49.2340   37.2770   12.1200 N.3    60  LYS60      -0.1314
@<TRIPOS>BOND
     1    35    34    2
     2    64    63    1
     3    34    33    1
     4    33    32    1
     5    33    36    1
     6    63    62   ar
     7    63    61   ar
     8    62    60   ar
     9    38    36    1
    10    36    37    1
    11    61    59   ar
    12    37    39    1
    13    25    23   ar
    14    25    27   ar
    15    20    19    2
    16    60    58   ar
    17    31    30    2
    18    59    58   ar
    19    23    22   ar
    20    30    29    1
    21    58    57    1
    22    27    26   ar
    23    19    18    1
    24    19    28   am
    25    18    17    1
    26    18    21    1
    27    22    21    1
    28    22    24   ar
    29    29    28    1
    30    40    41    1
    31    26    24   ar
    32    57    54    1
    33    12    11    2
    34    41    44    1
    35    41    42    1
    36    53    54    1
    37    54    55    1
    38    11    10    1
    39    42    43    2
    40    42    45   am
    41    55    56    2
    42    55    65   am
    43     4     3    2
    44    45    46    1
    45    10    13    1
    46    10     9    1
    47    48    47    2
    48     3     9   am
    49     3     2    1
    50    13    14    1
    51    47    46    1
    52    65    66    1
    53    46    49    1
    54     2     1    1
    55     2     5    1
    56    15    14    1
    57    14    16    1
    58    52    50    1
    59    66    69    1
    60    66    67    1
    61    71    72    1
    62    49    50    1
    63    49    51    1
    64     5     6    1
    65    69    70    1
    66     7     6    1
    67    67    68    2
    68     6     8    1
    69    72    73    1
    70    89    90    1
    71    92    91    2
    72    90    91    1
    73    90    93    1
    74    74    73    2
    75    73    75   am
    76    94    93    1
    77    94    95    1
    78    75    76    1
    79    78    77    2
    80    77    76    1
    81    76    79    1
    82    95    96    1
    83    96    97    1
    84    79    80    1
    85    80    81   ar
    86    80    82   ar
    87    81    83   ar
    88    82    85   ar
    89    82    84   ar
    90    83    84   ar
    91    85    87   ar
    92    84    86   ar
    93    87    88   ar
    94    86    88   ar
