@<TRIPOS>MOLECULE
tmp/1th6A00.pdb
 115 116 0 0 0
SMALL
GASTEIGER

@<TRIPOS>ATOM
      1  N         42.6910   36.7690    5.5080 N.3     2  LEU2       -0.1245
      2  CA        43.2800   35.4370    5.4110 C.3     2  LEU2        0.1561
      3  C         42.3690   34.3810    4.7780 C.2     2  LEU2        0.2260
      4  O         42.8230   33.5930    3.9500 O.2     2  LEU2       -0.2867
      5  CB        43.7380   34.9760    6.7940 C.3     2  LEU2        0.0270
      6  CG        44.5480   33.6840    6.8300 C.3     2  LEU2        0.0019
      7  CD1       45.8050   33.7840    5.9830 C.3     2  LEU2        0.0001
      8  CD2       44.8970   33.3450    8.2720 C.3     2  LEU2        0.0001
      9  N         42.1460   35.0960    1.0830 N.3     5  PHE5       -0.1241
     10  CA        43.4190   34.7300    0.4700 C.3     5  PHE5        0.1605
     11  C         43.4450   33.2110    0.2590 C.2     5  PHE5        0.2264
     12  O         43.8630   32.7310   -0.7960 O.2     5  PHE5       -0.2867
     13  CB        44.5850   35.1980    1.3690 C.3     5  PHE5        0.0534
     14  CG        45.9750   34.9240    0.8250 C.ar    5  PHE5       -0.0203
     15  CD1       46.2800   35.0710   -0.5260 C.ar    5  PHE5       -0.0042
     16  CD2       46.9810   34.5570    1.6970 C.ar    5  PHE5       -0.0042
     17  CE1       47.5560   34.8390   -0.9800 C.ar    5  PHE5       -0.0003
     18  CE2       48.2630   34.3330    1.2530 C.ar    5  PHE5       -0.0003
     19  CZ        48.5510   34.4830   -0.0970 C.ar    5  PHE5       -0.0000
     20  N         58.8510   30.9240    5.1060 N.3    27  TYR27      -0.1227
     21  CA        58.0440   32.1450    5.0290 C.3    27  TYR27       0.1736
     22  C         56.5470   31.9770    4.8060 C.2    27  TYR27       0.2596
     23  O         55.8030   32.9560    4.9430 O.2    27  TYR27      -0.2718
     24  CB        58.6350   33.0780    3.9670 C.3    27  TYR27       0.0548
     25  CG        59.9500   33.6300    4.4400 C.ar   27  TYR27      -0.0200
     26  CD1       61.1480   33.0210    4.0930 C.ar   27  TYR27      -0.0009
     27  CD2       59.9920   34.7160    5.2980 C.ar   27  TYR27      -0.0009
     28  CE1       62.3500   33.4990    4.5540 C.ar   27  TYR27       0.0417
     29  CE2       61.1880   35.2020    5.7700 C.ar   27  TYR27       0.0417
     30  CZ        62.3710   34.5900    5.3950 C.ar   27  TYR27       0.1957
     31  OH        63.5710   35.0880    5.8620 O.3    27  TYR27      -0.2866
     32  N         56.0880   30.7680    4.5060 N.am   28  CYS28      -0.1956
     33  CA        54.6620   30.5460    4.2570 C.3    28  CYS28       0.1843
     34  C         53.8910   30.2070    5.5080 C.2    28  CYS28       0.2626
     35  O         54.1480   29.1870    6.1550 O.2    28  CYS28      -0.2714
     36  CB        54.4380   29.3990    3.2880 C.3    28  CYS28       0.0997
     37  SG        55.1540   29.6570    1.6730 S.3    28  CYS28      -0.0797
     38  N         52.8960   31.0300    5.8060 N.am   29  GLY29      -0.1940
     39  CA        52.0230   30.7860    6.9360 C.3    29  GLY29       0.2014
     40  C         52.5000   31.3420    8.2590 C.2    29  GLY29       0.2639
     41  O         51.6790   31.5570    9.1500 O.2    29  GLY29      -0.2714
     42  N         53.8340   31.5740    8.4040 N.am   30  TRP30      -0.1959
     43  CA        54.2900   32.0930    9.6970 C.3    30  TRP30       0.1771
     44  C         55.4800   33.0370    9.5950 C.2    30  TRP30       0.2620
     45  O         55.8670   33.6150   10.6180 O.2    30  TRP30      -0.2715
     46  CB        54.4690   30.9680   10.6880 C.3    30  TRP30       0.0590
     47  CG        53.7120   31.3110   11.9250 C.ar   30  TRP30       0.0006
     48  CD1       52.3800   31.5820   12.0390 C.ar   30  TRP30       0.0946
     49  CD2       54.2660   31.4710   13.2280 C.ar   30  TRP30       0.0152
     50  NE1       52.0680   31.8870   13.3400 N.ar   30  TRP30      -0.2442
     51  CE2       53.2110   31.8240   14.0920 C.ar   30  TRP30       0.0810
     52  CE3       55.5510   31.3410   13.7610 C.ar   30  TRP30       0.0012
     53  CZ2       53.4000   32.0460   15.4480 C.ar   30  TRP30       0.0191
     54  CZ3       55.7350   31.5630   15.1080 C.ar   30  TRP30       0.0001
     55  CH2       54.6650   31.9120   15.9350 C.ar   30  TRP30       0.0015
     56  N         56.0530   33.2700    8.4400 N.am   31  GLY31      -0.1954
     57  CA        57.0930   34.2850    8.3120 C.3    31  GLY31       0.1869
     58  C         58.2870   34.2470    9.2560 C.2    31  GLY31       0.2309
     59  O         58.5130   33.2930   10.0080 O.2    31  GLY31      -0.2863
     60  N         56.0870   33.5180   -0.7270 N.3    44  CYS44      -0.1235
     61  CA        55.6850   33.8780    0.6230 C.3    44  CYS44       0.1677
     62  C         56.5520   34.9680    1.2350 C.2    44  CYS44       0.2270
     63  O         56.0250   35.8290    1.9350 O.2    44  CYS44      -0.2867
     64  CB        55.6860   32.6480    1.5220 C.3    44  CYS44       0.0956
     65  SG        54.4310   31.4470    1.0220 S.3    44  CYS44      -0.0801
     66  N         55.3150   38.1090   -0.3150 N.3    47  HIS47      -0.1226
     67  CA        53.9810   38.3920    0.2210 C.3    47  HIS47       0.1752
     68  C         54.1130   38.9800    1.6240 C.2    47  HIS47       0.2596
     69  O         53.4170   39.9400    1.9630 O.2    47  HIS47      -0.2718
     70  CB        53.1570   37.1160    0.2280 C.3    47  HIS47       0.0759
     71  CG        51.7360   37.3030    0.6490 C.ar   47  HIS47       0.0818
     72  ND1       51.2410   36.7870    1.8250 N.ar   47  HIS47      -0.2268
     73  CD2       50.7090   37.9520    0.0560 C.ar   47  HIS47       0.1154
     74  CE1       49.9580   37.0930    1.9260 C.ar   47  HIS47       0.1986
     75  NE2       49.6090   37.7930    0.8630 N.ar   47  HIS47      -0.2212
     76  N         55.0090   38.4240    2.4300 N.am   48  ASP48      -0.1974
     77  CA        55.2550   38.9440    3.7740 C.3    48  ASP48       0.1709
     78  C         55.7650   40.3940    3.6910 C.2    48  ASP48       0.2293
     79  O         55.3080   41.2630    4.4360 O.2    48  ASP48      -0.2864
     80  CB        56.2770   38.0870    4.5210 C.3    48  ASP48       0.1436
     81  CG        55.7860   36.6720    4.8040 C.2    48  ASP48       0.3671
     82  OD1       54.5680   36.4010    4.7450 O.co2  48  ASP48      -0.2456
     83  OD2       56.5860   35.7500    5.0830 O.co2  48  ASP48      -0.2456
     84  N         52.8400   42.7530    2.7320 N.3    51  TYR51      -0.1227
     85  CA        52.0610   43.1130    3.9120 C.3    51  TYR51       0.1736
     86  C         52.8600   44.0850    4.7830 C.2    51  TYR51       0.2596
     87  O         52.2990   44.9990    5.3880 O.2    51  TYR51      -0.2718
     88  CB        51.7120   41.8700    4.7190 C.3    51  TYR51       0.0548
     89  CG        50.5190   41.0560    4.2310 C.ar   51  TYR51      -0.0200
     90  CD1       49.8430   41.3460    3.0490 C.ar   51  TYR51      -0.0009
     91  CD2       50.0930   39.9660    4.9650 C.ar   51  TYR51      -0.0009
     92  CE1       48.7560   40.5790    2.6530 C.ar   51  TYR51       0.0417
     93  CE2       49.0270   39.2000    4.5800 C.ar   51  TYR51       0.0417
     94  CZ        48.3610   39.5020    3.4250 C.ar   51  TYR51       0.1957
     95  OH        47.2930   38.7080    3.0690 O.3    51  TYR51      -0.2866
     96  N         54.1760   43.9000    4.8290 N.am   52  GLY52      -0.1957
     97  CA        55.0530   44.7830    5.5880 C.3    52  GLY52       0.1869
     98  C         55.0880   46.2110    5.0550 C.2    52  GLY52       0.2309
     99  O         55.4540   47.1400    5.7920 O.2    52  GLY52      -0.2863
    100  N         45.7410   43.0370    7.1490 N.3    59  PRO59      -0.2102
    101  CA        45.5670   41.9460    6.1770 C.3    59  PRO59       0.1504
    102  C         44.8580   40.6780    6.6330 C.2    59  PRO59       0.2575
    103  O         44.2100   40.0230    5.8120 O.2    59  PRO59      -0.2718
    104  CB        47.0110   41.5860    5.8300 C.3    59  PRO59       0.0282
    105  CG        47.7750   42.8030    5.9840 C.3    59  PRO59       0.0208
    106  CD        47.0910   43.6110    7.0530 C.3    59  PRO59       0.0893
    107  N         45.0080   40.2930    7.8910 N.am   60  LYS60      -0.1980
    108  CA        44.3690   39.0640    8.3490 C.3    60  LYS60       0.1596
    109  C         42.8500   39.1380    8.3440 C.2    60  LYS60       0.2287
    110  O         42.1780   38.1660    8.0090 O.2    60  LYS60      -0.2864
    111  CB        44.8640   38.7010    9.7510 C.3    60  LYS60       0.0298
    112  CG        46.3120   38.2940    9.7600 C.3    60  LYS60       0.0038
    113  CD        46.9230   38.5520   11.1110 C.3    60  LYS60       0.0206
    114  CE        48.1140   37.6550   11.3580 C.3    60  LYS60       0.1093
    115  NZ        48.0610   36.9870   12.6860 N.3    60  LYS60      -0.1314
@<TRIPOS>BOND
     1    17    15   ar
     2    17    19   ar
     3    12    11    2
     4    60    61    1
     5    15    14   ar
     6    66    67    1
     7    19    18   ar
     8    73    71   ar
     9    73    75   ar
    10    67    70    1
    11    67    68    1
    12    70    71    1
    13    11    10    1
    14    10     9    1
    15    10    13    1
    16    61    62    1
    17    61    64    1
    18    71    72   ar
    19    14    13    1
    20    14    16   ar
    21    75    74   ar
    22    65    64    1
    23    65    37    1
    24    62    63    2
    25    18    16   ar
    26    68    69    2
    27    68    76   am
    28    37    36    1
    29    72    74   ar
    30    76    77    1
    31    92    90   ar
    32    92    94   ar
    33    84    85    1
    34    90    89   ar
    35    95    94    1
    36    36    33    1
    37    94    93   ar
    38    78    77    1
    39    78    79    2
    40    77    80    1
    41    85    88    1
    42    85    86    1
    43     4     3    2
    44    24    25    1
    45    24    21    1
    46    26    25   ar
    47    26    28   ar
    48    89    88    1
    49    89    91   ar
    50    33    32    1
    51    33    34    1
    52    25    27   ar
    53    32    22   am
    54    80    81    1
    55    28    30   ar
    56    93    91   ar
    57    82    81   ar
    58     3     2    1
    59    86    96   am
    60    86    87    2
    61    81    83   ar
    62    22    23    2
    63    22    21    1
    64    96    97    1
    65    21    20    1
    66    98    97    1
    67    98    99    2
    68    27    29   ar
    69    30    29   ar
    70    30    31    1
    71     2     1    1
    72     2     5    1
    73    34    38   am
    74    34    35    2
    75    38    39    1
    76   103   102    2
    77   104   105    1
    78   104   101    1
    79     7     6    1
    80   105   106    1
    81   101   102    1
    82   101   100    1
    83   102   107   am
    84     5     6    1
    85     6     8    1
    86    39    40    1
    87   106   100    1
    88   107   108    1
    89   110   109    2
    90    40    42   am
    91    40    41    2
    92    57    56    1
    93    57    58    1
    94   109   108    1
    95   108   111    1
    96    42    43    1
    97    56    44   am
    98    58    59    2
    99    44    43    1
   100    44    45    2
   101    43    46    1
   102   111   112    1
   103   112   113    1
   104    46    47    1
   105   113   114    1
   106   114   115    1
   107    47    48   ar
   108    47    49   ar
   109    48    50   ar
   110    49    52   ar
   111    49    51   ar
   112    50    51   ar
   113    52    54   ar
   114    51    53   ar
   115    54    55   ar
   116    53    55   ar
