@<TRIPOS>MOLECULE
tmp/1theB01.pdb
 173 168 0 0 0
SMALL
GASTEIGER

@<TRIPOS>ATOM
      1  N          8.0880   61.3460   71.4690 N.3    23  GLN23      -0.1245
      2  CA         8.8690   60.2400   70.9180 C.3    23  GLN23       0.1566
      3  C         10.3040   60.2140   71.4260 C.2    23  GLN23       0.2260
      4  O         11.0480   59.2440   71.2130 O.2    23  GLN23      -0.2867
      5  CB         8.8730   60.2900   69.3960 C.3    23  GLN23       0.0367
      6  CG         9.5440   61.4720   68.8270 C.3    23  GLN23       0.0905
      7  CD         9.3850   61.5380   67.2730 C.2    23  GLN23       0.2608
      8  OE1        8.3020   61.8930   66.7640 O.2    23  GLN23      -0.2717
      9  NE2       10.4840   61.2910   66.5500 N.am   23  GLN23      -0.0878
     10  N         13.7390   58.1680   66.1590 N.3    27  GLY27      -0.1225
     11  CA        12.9770   58.5640   64.9850 C.3    27  GLY27       0.1811
     12  C         11.7920   57.6470   64.7870 C.2    27  GLY27       0.2280
     13  O         11.6880   56.9230   63.7960 O.2    27  GLY27      -0.2866
     14  N          8.5060   58.4780   64.9310 N.3    29  CYS29      -0.1221
     15  CA         7.2160   59.1990   64.7160 C.3    29  CYS29       0.1808
     16  C          6.2030   58.3200   64.0060 C.2    29  CYS29       0.2601
     17  O          5.0120   58.3440   64.3080 O.2    29  CYS29      -0.2717
     18  CB         7.4140   60.4670   63.8880 C.3    29  CYS29       0.0970
     19  SG         7.9170   60.0530   62.1650 S.3    29  CYS29      -0.0800
     20  N          6.6960   57.4140   63.1760 N.am   30  TRP30      -0.1976
     21  CA         5.8260   56.4100   62.5500 C.3    30  TRP30       0.1640
     22  C          5.0860   55.5140   63.5280 C.2    30  TRP30       0.2290
     23  O          3.8950   55.2780   63.3510 O.2    30  TRP30      -0.2864
     24  CB         6.6340   55.5280   61.5810 C.3    30  TRP30       0.0576
     25  CG         7.6930   54.7440   62.2520 C.ar   30  TRP30       0.0006
     26  CD1        8.9550   55.1500   62.5040 C.ar   30  TRP30       0.0946
     27  CD2        7.5710   53.4330   62.7930 C.ar   30  TRP30       0.0152
     28  NE1        9.6350   54.1820   63.1720 N.ar   30  TRP30      -0.2442
     29  CE2        8.7990   53.1130   63.3740 C.ar   30  TRP30       0.0810
     30  CE3        6.5330   52.4910   62.8370 C.ar   30  TRP30       0.0012
     31  CZ2        9.0410   51.8900   63.9890 C.ar   30  TRP30       0.0191
     32  CZ3        6.7850   51.2630   63.4560 C.ar   30  TRP30       0.0001
     33  CH2        8.0190   50.9770   64.0040 C.ar   30  TRP30       0.0015
     34  N         10.1920   48.8250   59.2720 N.3    68  GLY68      -0.1210
     35  CA        11.2620   49.6990   58.8220 C.3    68  GLY68       0.1956
     36  C         12.5300   49.3960   59.5870 C.2    68  GLY68       0.2611
     37  O         12.9200   48.2200   59.6840 O.2    68  GLY68      -0.2717
     38  N         13.1140   50.4310   60.2080 N.am   69  ASP69      -0.1973
     39  CA        14.3080   50.2660   61.0760 C.3    69  ASP69       0.1709
     40  C         14.1900   51.0740   62.3810 C.2    69  ASP69       0.2293
     41  O         15.0030   51.9470   62.6520 O.2    69  ASP69      -0.2864
     42  CB        15.5400   50.7050   60.2990 C.3    69  ASP69       0.1436
     43  CG        16.8910   50.3150   60.9850 C.2    69  ASP69       0.3671
     44  OD1       17.0470   49.1680   61.4630 O.co2  69  ASP69      -0.2456
     45  OD2       17.8590   51.0980   60.8590 O.co2  69  ASP69      -0.2456
     46  N         15.5120   54.6410   63.4370 N.3    72  ASN72      -0.1225
     47  CA        16.0760   55.3480   62.2880 C.3    72  ASN72       0.1785
     48  C         14.9920   55.8220   61.3330 C.2    72  ASN72       0.2598
     49  O         15.2270   56.6910   60.4760 O.2    72  ASN72      -0.2718
     50  CB        17.0580   54.4440   61.5430 C.3    72  ASN72       0.1169
     51  CG        18.3010   54.1950   62.3230 C.2    72  ASN72       0.2627
     52  OD1       18.7830   55.2110   63.0210 O.2    72  ASN72      -0.2716
     53  ND2       18.8630   53.1190   62.2560 N.am   72  ASN72      -0.0877
     54  N         13.8080   55.2400   61.4820 N.am   73  GLY73      -0.1942
     55  CA        12.7490   55.5160   60.5350 C.3    73  GLY73       0.2014
     56  C         11.8830   54.3120   60.2730 C.2    73  GLY73       0.2639
     57  O         12.2860   53.1790   60.4320 O.2    73  GLY73      -0.2714
     58  N         10.7010   54.5770   59.7330 N.am   74  GLY74      -0.1939
     59  CA         9.8320   53.4830   59.4490 C.3    74  GLY74       0.2014
     60  C          8.6000   53.8740   58.7230 C.2    74  GLY74       0.2639
     61  O          8.3890   55.0400   58.3900 O.2    74  GLY74      -0.2714
     62  N          7.7200   52.8940   58.5690 N.am   75  TYR75      -0.1960
     63  CA         6.5830   53.0000   57.6300 C.3    75  TYR75       0.1756
     64  C          5.2650   52.8110   58.3560 C.2    75  TYR75       0.2461
     65  O          4.9200   51.6670   58.6630 O.2    75  TYR75      -0.2730
     66  CB         6.6910   51.9160   56.5480 C.3    75  TYR75       0.0574
     67  CG         8.0180   51.9260   55.8580 C.ar   75  TYR75      -0.0198
     68  CD1        8.4340   53.0480   55.1450 C.ar   75  TYR75      -0.0009
     69  CD2        8.9250   50.8950   56.0390 C.ar   75  TYR75      -0.0009
     70  CE1        9.6940   53.1120   54.6010 C.ar   75  TYR75       0.0417
     71  CE2       10.2280   50.9970   55.5550 C.ar   75  TYR75       0.0417
     72  CZ        10.5930   52.1150   54.8190 C.ar   75  TYR75       0.1957
     73  OH        11.8430   52.2950   54.3150 O.3    75  TYR75      -0.2866
     74  N          4.4190   53.8600   58.3770 N.am   76  PRO76      -0.2727
     75  CA         3.1750   53.7910   59.1150 C.3    76  PRO76       0.1402
     76  C          2.3200   52.5980   58.8040 C.2    76  PRO76       0.2269
     77  O          1.9060   51.8920   59.6850 O.2    76  PRO76      -0.2865
     78  CB         2.5000   55.0890   58.7710 C.3    76  PRO76       0.0296
     79  CG         3.5900   56.0470   58.6520 C.3    76  PRO76       0.0237
     80  CD         4.7720   55.2490   58.0660 C.3    76  PRO76       0.0939
     81  N         13.4110   71.2760   69.2440 N.3   111  HIS111     -0.1241
     82  CA        13.5070   72.5790   68.5670 C.3   111  HIS111      0.1621
     83  C         12.8780   73.7110   69.4120 C.2   111  HIS111      0.2264
     84  O         12.1580   74.5650   68.8980 O.2   111  HIS111     -0.2867
     85  CB        12.8400   72.5080   67.1790 C.3   111  HIS111      0.0745
     86  CG        13.4260   71.4550   66.2910 C.ar  111  HIS111      0.0817
     87  ND1       14.7580   71.4530   65.9420 N.ar  111  HIS111     -0.2268
     88  CD2       12.9260   70.2650   65.8690 C.ar  111  HIS111      0.1154
     89  CE1       15.0630   70.3010   65.3670 C.ar  111  HIS111      0.1986
     90  NE2       13.9700   69.5620   65.3160 N.ar  111  HIS111     -0.2212
     91  N         19.3280   59.7830   67.3240 N.3   122  GLU122     -0.1245
     92  CA        18.3450   58.7170   67.3230 C.3   122  GLU122      0.1567
     93  C         18.9930   57.5400   67.9880 C.2   122  GLU122      0.2260
     94  O         19.8130   56.8400   67.3770 O.2   122  GLU122     -0.2867
     95  CB        17.9260   58.3670   65.8980 C.3   122  GLU122      0.0388
     96  CG        17.2810   59.4130   64.9350 C.3   122  GLU122      0.1160
     97  CD        17.4280   59.0880   63.4010 C.2   122  GLU122      0.3649
     98  OE1       18.5590   58.8100   62.8790 O.co2 122  GLU122     -0.2457
     99  OE2       16.2740   59.0970   62.6770 O.co2 122  GLU122     -0.2457
    100  N          1.2420   61.3210   57.0720 N.3   173  ALA173     -0.1245
    101  CA         2.6550   61.6840   56.9310 C.3   173  ALA173      0.1562
    102  C          2.7960   62.7910   55.8820 C.2   173  ALA173      0.2260
    103  O          1.8440   63.0510   55.1510 O.2   173  ALA173     -0.2867
    104  CB         3.4580   60.5090   56.5460 C.3   173  ALA173      0.0290
    105  N          8.4570   67.6060   56.1020 N.3   176  VAL176     -0.1245
    106  CA         8.9240   68.6620   56.9750 C.3   176  VAL176      0.1561
    107  C         10.0080   69.5370   56.2940 C.2   176  VAL176      0.2260
    108  O         11.0780   69.0580   55.9580 O.2   176  VAL176     -0.2867
    109  CB         9.4650   68.0470   58.2760 C.3   176  VAL176      0.0252
    110  CG1       10.0510   69.1460   59.1980 C.3   176  VAL176      0.0019
    111  CG2        8.2950   67.3440   58.9800 C.3   176  VAL176      0.0019
    112  N          9.7490   73.8100   61.9220 N.3   181  LEU181     -0.1245
    113  CA        10.3650   73.4620   63.2070 C.3   181  LEU181      0.1561
    114  C         10.0510   74.4840   64.3180 C.2   181  LEU181      0.2260
    115  O          9.8660   74.1120   65.4680 O.2   181  LEU181     -0.2867
    116  CB        11.8230   73.3780   63.0330 C.3   181  LEU181      0.0270
    117  CG        12.2500   72.2380   62.1210 C.3   181  LEU181      0.0019
    118  CD1       13.7770   72.2550   62.0460 C.3   181  LEU181      0.0001
    119  CD2       11.7230   70.9430   62.6420 C.3   181  LEU181      0.0001
    120  N         13.7960   68.6470   55.5080 N.3   196  MET196     -0.1230
    121  CA        14.2990   68.0310   56.7320 C.3   196  MET196      0.1705
    122  C         14.0360   66.5270   56.7050 C.2   196  MET196      0.2632
    123  O         14.8650   65.7310   57.1350 O.2   196  MET196     -0.2714
    124  CB        13.5480   68.5680   57.9340 C.3   196  MET196      0.0401
    125  CG        13.5510   70.0270   58.0870 C.3   196  MET196      0.0596
    126  SD        14.9170   70.4900   59.0590 S.3   196  MET196     -0.1393
    127  CE        15.9490   71.1830   57.7540 C.3   196  MET196      0.0692
    128  N         12.7870   66.1720   56.4310 N.am  197  GLY197     -0.1718
    129  CA        12.4300   64.7690   56.2930 C.2   197  GLY197      0.1480
    130  C         10.9360   64.4790   56.2600 C.2   197  GLY197      0.2821
    131  O         10.1190   65.3970   56.4040 O.2   197  GLY197     -0.2669
    132  N         10.5880   63.1860   56.2890 N.am  198  GLY198     -0.1905
    133  CA         9.1940   62.7960   56.3970 C.3   198  GLY198      0.2017
    134  C          8.7900   62.5880   57.8570 C.2   198  GLY198      0.2639
    135  O          9.4760   61.8670   58.5990 O.2   198  GLY198     -0.2714
    136  N          7.5750   63.0150   58.2110 N.am  199  HIS199     -0.1959
    137  CA         7.1800   62.9880   59.6020 C.3   199  HIS199      0.1787
    138  C          5.7540   62.4750   59.6550 C.2   199  HIS199      0.2620
    139  O          4.9260   62.9090   58.8820 O.2   199  HIS199     -0.2715
    140  CB         7.2960   64.4030   60.1940 C.3   199  HIS199      0.0785
    141  CG         6.9180   64.4970   61.6500 C.ar  199  HIS199      0.0821
    142  ND1        7.3810   63.6110   62.5940 N.ar  199  HIS199     -0.2267
    143  CD2        6.1550   65.3970   62.3230 C.ar  199  HIS199      0.1154
    144  CE1        6.9440   63.9690   63.7890 C.ar  199  HIS199      0.1986
    145  NE2        6.1930   65.0460   63.6520 N.ar  199  HIS199     -0.2212
    146  N          5.5180   61.4520   60.4950 N.am  200  ALA200     -0.1977
    147  CA         4.2150   60.8350   60.6540 C.3   200  ALA200      0.1597
    148  C          3.5030   61.3790   61.8880 C.2   200  ALA200      0.2287
    149  O          4.1310   61.5730   62.9420 O.2   200  ALA200     -0.2864
    150  CB         4.3640   59.3080   60.7680 C.3   200  ALA200      0.0319
    151  N          6.1800   65.5890   69.8280 N.3   221  TRP221     -0.1241
    152  CA         7.3320   66.3790   70.2860 C.3   221  TRP221      0.1605
    153  C          7.1180   67.0520   71.6610 C.2   221  TRP221      0.2264
    154  O          7.8260   68.0000   72.0040 O.2   221  TRP221     -0.2867
    155  CB         7.6580   67.4950   69.2460 C.3   221  TRP221      0.0550
    156  CG         8.3900   66.9510   68.0340 C.ar  221  TRP221      0.0003
    157  CD1        8.6610   65.6480   67.7990 C.ar  221  TRP221      0.0946
    158  CD2        8.7760   67.6660   66.8320 C.ar  221  TRP221      0.0152
    159  NE1        9.1610   65.4830   66.5320 N.ar  221  TRP221     -0.2442
    160  CE2        9.2370   66.7020   65.9110 C.ar  221  TRP221      0.0810
    161  CE3        8.7660   69.0160   66.4470 C.ar  221  TRP221      0.0012
    162  CZ2        9.6630   67.0410   64.6150 C.ar  221  TRP221      0.0191
    163  CZ3        9.1960   69.3500   65.1560 C.ar  221  TRP221      0.0001
    164  CH2        9.6280   68.3630   64.2560 C.ar  221  TRP221      0.0015
    165  N         -0.7120   60.2980   52.4860 N.3   245  GLU245     -0.1245
    166  CA        -0.3430   59.0580   53.1390 C.3   245  GLU245      0.1567
    167  C         -1.1920   58.7830   54.3990 C.2   245  GLU245      0.2260
    168  O         -0.6530   58.5120   55.4660 O.2   245  GLU245     -0.2867
    169  CB         1.1330   59.0900   53.5170 C.3   245  GLU245      0.0388
    170  CG         2.1380   59.2470   52.3930 C.3   245  GLU245      0.1160
    171  CD         3.5520   59.3930   52.9170 C.2   245  GLU245      0.3649
    172  OE1        4.1450   58.3930   53.3800 O.co2 245  GLU245     -0.2457
    173  OE2        4.0620   60.5180   52.8630 O.co2 245  GLU245     -0.2457
@<TRIPOS>BOND
     1   170   171    1
     2   170   169    1
     3   165   166    1
     4   173   171   ar
     5   171   172   ar
     6   166   169    1
     7   166   167    1
     8    73    72    1
     9   167   168    2
    10    70    72   ar
    11    70    68   ar
    12    72    71   ar
    13    68    67   ar
    14   103   102    2
    15   120   121    1
    16    71    69   ar
    17    67    69   ar
    18    67    66    1
    19   102   101    1
    20   108   107    2
    21   105   106    1
    22   130   132   am
    23   130   129    1
    24   130   131    2
    25   132   133    1
    26   129   128    2
    27   107   106    1
    28   133   134    1
    29   128   122    1
    30   104   101    1
    31    66    63    1
    32   122   121    1
    33   122   123    2
    34   121   124    1
    35   101   100    1
    36   106   109    1
    37    63    64    1
    38    63    62    1
    39   127   126    1
    40   134   136   am
    41   134   135    2
    42   124   125    1
    43    80    74    1
    44    80    79    1
    45   125   126    1
    46   136   137    1
    47   109   111    1
    48   109   110    1
    49    64    74   am
    50    64    65    2
    51    74    75    1
    52    61    60    2
    53    62    60   am
    54    79    78    1
    55    60    59    1
    56    78    75    1
    57    76    75    1
    58    76    77    2
    59    35    34    1
    60    35    36    1
    61   139   138    2
    62    59    58    1
    63    36    37    2
    64    36    38   am
    65   137   138    1
    66   137   140    1
    67   138   146   am
    68    58    56   am
    69   140   141    1
    70    38    39    1
    71    56    57    2
    72    56    55    1
    73    42    43    1
    74    42    39    1
    75    49    48    2
    76   146   147    1
    77    55    54    1
    78   147   150    1
    79   147   148    1
    80    45    43   ar
    81    43    44   ar
    82    39    40    1
    83    48    54   am
    84    48    47    1
    85    50    47    1
    86    50    51    1
    87    24    25    1
    88    24    21    1
    89   141   143   ar
    90   141   142   ar
    91   148   149    2
    92   112   113    1
    93   118   117    1
    94   117   119    1
    95   117   116    1
    96    19    18    1
    97    25    26   ar
    98    25    27   ar
    99    53    51   am
   100    47    46    1
   101    51    52    2
   102   143   145   ar
   103    40    41    2
   104    26    28   ar
   105    21    20    1
   106    21    22    1
   107   142   144   ar
   108    99    97   ar
   109    27    30   ar
   110    27    29   ar
   111    30    32   ar
   112    98    97   ar
   113   116   113    1
   114    28    29   ar
   115    20    16   am
   116   113   114    1
   117    23    22    2
   118    29    31   ar
   119    97    96    1
   120    32    33   ar
   121   145   144   ar
   122    13    12    2
   123    18    15    1
   124    31    33   ar
   125    16    17    2
   126    16    15    1
   127   164   162   ar
   128   164   163   ar
   129   114   115    2
   130   162   160   ar
   131    15    14    1
   132    12    11    1
   133    96    95    1
   134    11    10    1
   135   163   161   ar
   136    90    89   ar
   137    90    88   ar
   138    89    87   ar
   139    88    86   ar
   140    95    92    1
   141   160   159   ar
   142   160   158   ar
   143    87    86   ar
   144    86    85    1
   145   161   158   ar
   146   159   157   ar
   147     9     7   am
   148     8     7    2
   149   158   156   ar
   150    85    82    1
   151     7     6    1
   152    92    91    1
   153    92    93    1
   154    94    93    2
   155   157   156   ar
   156   156   155    1
   157    82    81    1
   158    82    83    1
   159     6     5    1
   160    84    83    2
   161   155   152    1
   162     5     2    1
   163   151   152    1
   164   152   153    1
   165     2     3    1
   166     2     1    1
   167     4     3    2
   168   153   154    2
