@<TRIPOS>MOLECULE
tmp/1thlA00.pdb
 186 183 0 0 0
SMALL
GASTEIGER

@<TRIPOS>ATOM
      1  N         29.5680   32.7980    2.7720 N.3   110  TYR110     -0.1227
      2  CA        30.1360   33.2890    1.5460 C.3   110  TYR110      0.1736
      3  C         31.2480   34.2830    1.8360 C.2   110  TYR110      0.2595
      4  O         31.0130   35.3100    2.4490 O.2   110  TYR110     -0.2718
      5  CB        29.0080   33.8920    0.7350 C.3   110  TYR110      0.0548
      6  CG        29.4440   34.2610   -0.6240 C.ar  110  TYR110     -0.0200
      7  CD1       29.8020   33.3070   -1.5660 C.ar  110  TYR110     -0.0009
      8  CD2       29.5520   35.6100   -1.0050 C.ar  110  TYR110     -0.0009
      9  CE1       30.2870   33.7200   -2.8190 C.ar  110  TYR110      0.0417
     10  CE2       29.9790   36.0290   -2.2610 C.ar  110  TYR110      0.0417
     11  CZ        30.3790   35.0620   -3.1820 C.ar  110  TYR110      0.1957
     12  OH        30.8970   35.4650   -4.3960 O.3   110  TYR110     -0.2866
     13  N         32.4750   33.9610    1.4350 N.am  111  ASN111     -0.1960
     14  CA        33.5700   34.8060    1.8010 C.3   111  ASN111      0.1819
     15  C         33.8440   35.8300    0.7540 C.2   111  ASN111      0.2621
     16  O         34.9310   35.8820    0.2510 O.2   111  ASN111     -0.2715
     17  CB        34.8130   33.8910    2.0030 C.3   111  ASN111      0.1195
     18  CG        34.8060   33.1530    3.3290 C.2   111  ASN111      0.2630
     19  OD1       34.4920   33.6680    4.4250 O.2   111  ASN111     -0.2716
     20  ND2       35.2660   31.9060    3.2310 N.am  111  ASN111     -0.0877
     21  N         32.8630   36.5630    0.3020 N.am  112  ASN112     -0.1958
     22  CA        33.1620   37.5430   -0.7360 C.3   112  ASN112      0.1819
     23  C         32.0440   38.5720   -0.7860 C.2   112  ASN112      0.2621
     24  O         31.0650   38.4810   -0.0080 O.2   112  ASN112     -0.2715
     25  CB        33.4180   36.9200   -2.1390 C.3   112  ASN112      0.1195
     26  CG        34.6240   37.5010   -2.8410 C.2   112  ASN112      0.2630
     27  OD1       35.0860   38.5780   -2.4710 O.2   112  ASN112     -0.2716
     28  ND2       35.1970   36.7240   -3.7600 N.am  112  ASN112     -0.0877
     29  N         32.2660   39.5750   -1.6350 N.am  113  ALA113     -0.1963
     30  CA        31.3500   40.6440   -1.9220 C.3   113  ALA113      0.1728
     31  C         31.5500   40.9810   -3.3640 C.2   113  ALA113      0.2616
     32  O         32.5460   40.6350   -3.9340 O.2   113  ALA113     -0.2715
     33  CB        31.5820   41.8410   -1.0530 C.3   113  ALA113      0.0334
     34  N         30.5520   41.6130   -3.9780 N.am  114  PHE114     -0.1960
     35  CA        30.6200   41.9700   -5.3900 C.3   114  PHE114      0.1771
     36  C         29.5390   42.9410   -5.8100 C.2   114  PHE114      0.2619
     37  O         28.5670   43.1850   -5.1100 O.2   114  PHE114     -0.2715
     38  CB        30.5150   40.7510   -6.3390 C.3   114  PHE114      0.0574
     39  CG        29.2930   39.8410   -6.1470 C.ar  114  PHE114     -0.0200
     40  CD1       29.2450   38.8650   -5.1510 C.ar  114  PHE114     -0.0042
     41  CD2       28.1810   39.9850   -6.9970 C.ar  114  PHE114     -0.0042
     42  CE1       28.1880   37.9560   -5.0100 C.ar  114  PHE114     -0.0003
     43  CE2       27.0920   39.1160   -6.8520 C.ar  114  PHE114     -0.0003
     44  CZ        27.0760   38.1520   -5.8550 C.ar  114  PHE114     -0.0000
     45  N         29.7930   43.5470   -6.9800 N.am  115  TRP115     -0.1974
     46  CA        28.8700   44.4290   -7.7460 C.3   115  TRP115      0.1640
     47  C         28.3700   43.5970   -8.9470 C.2   115  TRP115      0.2290
     48  O         29.1880   43.0040   -9.6520 O.2   115  TRP115     -0.2864
     49  CB        29.5810   45.7590   -8.2050 C.3   115  TRP115      0.0576
     50  CG        28.7860   46.5440   -9.1980 C.ar  115  TRP115      0.0006
     51  CD1       29.0210   46.6460  -10.5300 C.ar  115  TRP115      0.0946
     52  CD2       27.6900   47.4320   -8.9040 C.ar  115  TRP115      0.0152
     53  NE1       28.0360   47.4070  -11.1450 N.ar  115  TRP115     -0.2442
     54  CE2       27.2660   47.9690  -10.1710 C.ar  115  TRP115      0.0810
     55  CE3       27.0890   47.8720   -7.6980 C.ar  115  TRP115      0.0012
     56  CZ2       26.1980   48.8760  -10.2530 C.ar  115  TRP115      0.0191
     57  CZ3       26.0310   48.7840   -7.8110 C.ar  115  TRP115      0.0001
     58  CH2       25.6020   49.2270   -9.0660 C.ar  115  TRP115      0.0015
     59  N         37.9290   33.1200    8.0670 N.3   129  THR129     -0.1203
     60  CA        38.5810   33.8050    7.0180 C.3   129  THR129      0.1994
     61  C         38.0100   35.2040    6.9610 C.2   129  THR129      0.2617
     62  O         38.7460   36.1080    6.7570 O.2   129  THR129     -0.2717
     63  CB        38.2810   33.0840    5.6940 C.3   129  THR129      0.1784
     64  OG1       38.5330   31.6910    5.7590 O.3   129  THR129     -0.2211
     65  CG2       38.8620   33.7600    4.4510 C.3   129  THR129      0.0376
     66  N         36.6840   35.3880    7.1160 N.am  130  PHE130     -0.1975
     67  CA        36.1000   36.6990    7.0530 C.3   130  PHE130      0.1639
     68  C         34.9580   36.6880    7.9990 C.2   130  PHE130      0.2290
     69  O         34.3740   35.6430    8.2990 O.2   130  PHE130     -0.2864
     70  CB        35.4220   36.9400    5.6920 C.3   130  PHE130      0.0560
     71  CG        36.3120   37.4160    4.5930 C.ar  130  PHE130     -0.0200
     72  CD1       36.5970   38.7760    4.5500 C.ar  130  PHE130     -0.0042
     73  CD2       36.8750   36.5680    3.6400 C.ar  130  PHE130     -0.0042
     74  CE1       37.4140   39.2800    3.5540 C.ar  130  PHE130     -0.0003
     75  CE2       37.6880   37.0580    2.6080 C.ar  130  PHE130     -0.0003
     76  CZ        37.9780   38.4180    2.6130 C.ar  130  PHE130     -0.0000
     77  N         31.2660   40.9970    5.2600 N.3   133  LEU133     -0.1245
     78  CA        32.0980   41.8740    4.4720 C.3   133  LEU133      0.1561
     79  C         31.6900   43.3440    4.4850 C.2   133  LEU133      0.2260
     80  O         32.5440   44.2040    4.2220 O.2   133  LEU133     -0.2867
     81  CB        32.3900   41.3600    3.0420 C.3   133  LEU133      0.0270
     82  CG        33.4470   40.2620    3.0330 C.3   133  LEU133      0.0019
     83  CD1       32.8180   38.9140    3.3430 C.3   133  LEU133      0.0001
     84  CD2       34.1630   40.2680    1.7110 C.3   133  LEU133      0.0001
     85  N         35.9110   48.0370    1.6610 N.3   139  VAL139     -0.1245
     86  CA        35.1830   47.0090    0.8630 C.3   139  VAL139      0.1561
     87  C         33.9330   47.5780    0.1980 C.2   139  VAL139      0.2260
     88  O         33.7540   47.4410   -1.0190 O.2   139  VAL139     -0.2867
     89  CB        34.7870   45.6690    1.5030 C.3   139  VAL139      0.0252
     90  CG1       34.5100   44.7190    0.3370 C.3   139  VAL139      0.0019
     91  CG2       35.9690   45.1780    2.3140 C.3   139  VAL139      0.0019
     92  N         34.9480   50.1060   -2.3290 N.3   142  HIS142     -0.1226
     93  CA        35.5680   49.4610   -3.4800 C.3   142  HIS142      0.1752
     94  C         34.4440   48.9970   -4.3910 C.2   142  HIS142      0.2595
     95  O         34.4740   49.1790   -5.5990 O.2   142  HIS142     -0.2718
     96  CB        36.4290   48.2770   -2.9400 C.3   142  HIS142      0.0759
     97  CG        36.9990   47.3940   -4.0010 C.ar  142  HIS142      0.0818
     98  ND1       38.3850   47.2820   -4.2220 N.ar  142  HIS142     -0.2268
     99  CD2       36.3500   46.5800   -4.8890 C.ar  142  HIS142      0.1154
    100  CE1       38.5320   46.4740   -5.2770 C.ar  142  HIS142      0.1986
    101  NE2       37.3310   46.0260   -5.7020 N.ar  142  HIS142     -0.2212
    102  N         33.3880   48.4250   -3.7640 N.am  143  GLU143     -0.1979
    103  CA        32.2630   47.9270   -4.5500 C.3   143  GLU143      0.1602
    104  C         31.5130   49.0240   -5.2730 C.2   143  GLU143      0.2287
    105  O         31.1500   48.9020   -6.4410 O.2   143  GLU143     -0.2864
    106  CB        31.3000   47.0020   -3.7820 C.3   143  GLU143      0.0415
    107  CG        31.9150   45.7010   -3.1470 C.3   143  GLU143      0.1163
    108  CD        32.6050   44.8610   -4.1780 C.2   143  GLU143      0.3649
    109  OE1       32.4170   44.9760   -5.3390 O.co2 143  GLU143     -0.2457
    110  OE2       33.5320   44.1290   -3.7280 O.co2 143  GLU143     -0.2457
    111  N         33.1950   50.1980   -8.3630 N.3   146  HIS146     -0.1241
    112  CA        33.0130   49.4320   -9.5900 C.3   146  HIS146      0.1621
    113  C         31.8240   50.0380  -10.4190 C.2   146  HIS146      0.2264
    114  O         31.8270   50.0810  -11.6250 O.2   146  HIS146     -0.2867
    115  CB        32.6900   47.9660   -9.2010 C.3   146  HIS146      0.0745
    116  CG        33.9650   47.1660   -8.9770 C.ar  146  HIS146      0.0817
    117  ND1       35.0220   47.2080   -9.9010 N.ar  146  HIS146     -0.2268
    118  CD2       34.3340   46.3370   -7.9950 C.ar  146  HIS146      0.1154
    119  CE1       35.9910   46.4090   -9.4650 C.ar  146  HIS146      0.1986
    120  NE2       35.6160   45.8770   -8.3200 N.ar  146  HIS146     -0.2212
    121  N         36.8850   43.9930  -17.6900 N.3   157  TYR157     -0.1241
    122  CA        37.4230   43.3410  -16.5440 C.3   157  TYR157      0.1605
    123  C         38.3330   42.1940  -16.8780 C.2   157  TYR157      0.2264
    124  O         38.0820   41.0070  -16.5210 O.2   157  TYR157     -0.2867
    125  CB        36.3080   42.8620  -15.6320 C.3   157  TYR157      0.0534
    126  CG        36.7070   42.6940  -14.1780 C.ar  157  TYR157     -0.0201
    127  CD1       37.1670   43.7960  -13.4430 C.ar  157  TYR157     -0.0009
    128  CD2       36.6190   41.4750  -13.5100 C.ar  157  TYR157     -0.0009
    129  CE1       37.4020   43.7030  -12.0730 C.ar  157  TYR157      0.0417
    130  CE2       36.7710   41.3760  -12.1210 C.ar  157  TYR157      0.0417
    131  CZ        37.2760   42.4710  -11.4240 C.ar  157  TYR157      0.1957
    132  OH        37.4660   42.3730  -10.0830 O.3   157  TYR157     -0.2866
    133  N         40.4240   47.3580  -11.0060 N.3   166  GLU166     -0.1245
    134  CA        40.6790   46.9730   -9.5970 C.3   166  GLU166      0.1567
    135  C         41.4150   48.0630   -8.7630 C.2   166  GLU166      0.2260
    136  O         41.0080   48.3310   -7.6570 O.2   166  GLU166     -0.2867
    137  CB        41.4860   45.6350   -9.5570 C.3   166  GLU166      0.0388
    138  CG        40.5350   44.4320   -9.6600 C.3   166  GLU166      0.1160
    139  CD        39.5110   44.5630   -8.5710 C.2   166  GLU166      0.3649
    140  OE1       39.9880   44.5780   -7.3560 O.co2 166  GLU166     -0.2457
    141  OE2       38.3450   44.6960   -8.7870 O.co2 166  GLU166     -0.2457
    142  N         43.8080   46.9990    2.2840 N.3   188  ILE188     -0.1245
    143  CA        42.4320   46.6710    1.8520 C.3   188  ILE188      0.1561
    144  C         41.8340   45.4970    2.6590 C.2   188  ILE188      0.2260
    145  O         42.3980   44.4140    2.6570 O.2   188  ILE188     -0.2867
    146  CB        42.3310   46.3470    0.3530 C.3   188  ILE188      0.0252
    147  CG1       42.9950   47.4630   -0.4740 C.3   188  ILE188      0.0019
    148  CG2       40.8880   46.0380   -0.0400 C.3   188  ILE188      0.0019
    149  CD1       42.2330   48.7830   -0.4740 C.3   188  ILE188      0.0001
    150  N         43.8180   41.9050    2.9950 N.3   202  LEU202     -0.1231
    151  CA        43.7990   41.2180    1.7200 C.3   202  LEU202      0.1693
    152  C         44.9620   41.5980    0.8140 C.2   202  LEU202      0.2591
    153  O         45.4140   40.7990   -0.0370 O.2   202  LEU202     -0.2718
    154  CB        42.4850   41.5470    0.9030 C.3   202  LEU202      0.0284
    155  CG        41.4630   40.4460    0.7010 C.3   202  LEU202      0.0019
    156  CD1       41.5020   39.4730    1.8450 C.3   202  LEU202      0.0001
    157  CD2       40.0860   41.0830    0.6940 C.3   202  LEU202      0.0001
    158  N         45.1880   42.8920    0.7740 N.am  203  ARG203     -0.1980
    159  CA        46.1290   43.4870   -0.1460 C.3   203  ARG203      0.1597
    160  C         46.7040   44.6860    0.5410 C.2   203  ARG203      0.2287
    161  O         46.0280   45.2990    1.3780 O.2   203  ARG203     -0.2864
    162  CB        45.4370   44.0560   -1.4030 C.3   203  ARG203      0.0334
    163  CG        44.9540   43.0530   -2.3960 C.3   203  ARG203      0.0492
    164  CD        44.5040   43.7650   -3.6610 C.3   203  ARG203      0.2205
    165  NE        43.1520   44.2900   -3.5670 N.pl3 203  ARG203     -0.0865
    166  CZ        42.0290   43.5570   -3.5740 C.cat 203  ARG203      0.5346
    167  NH1       42.0250   42.2280   -3.5090 N.pl3 203  ARG203      0.1354
    168  NH2       40.8730   44.1920   -3.6100 N.pl3 203  ARG203      0.1354
    169  N         42.3980   34.5420  -12.4900 N.3   226  ASP226     -0.1239
    170  CA        41.9040   35.7990  -11.9330 C.3   226  ASP226      0.1674
    171  C         41.6580   36.8420  -12.9950 C.2   226  ASP226      0.2266
    172  O         42.0520   38.0080  -12.9130 O.2   226  ASP226     -0.2867
    173  CB        42.8790   36.3360  -10.8940 C.3   226  ASP226      0.1410
    174  CG        42.3660   37.6050  -10.2470 C.2   226  ASP226      0.3668
    175  OD1       41.1990   37.8280  -10.0020 O.co2 226  ASP226     -0.2456
    176  OD2       43.3040   38.3810   -9.8200 O.co2 226  ASP226     -0.2456
    177  N         43.2820   41.0620   -9.7850 N.3   231  HIS231     -0.1241
    178  CA        43.5530   41.2900   -8.3880 C.3   231  HIS231      0.1621
    179  C         45.0420   41.2640   -7.9890 C.2   231  HIS231      0.2264
    180  O         45.3690   41.5850   -6.8280 O.2   231  HIS231     -0.2867
    181  CB        42.7430   40.5060   -7.3480 C.3   231  HIS231      0.0745
    182  CG        41.2770   40.6940   -7.5050 C.ar  231  HIS231      0.0817
    183  ND1       40.5250   39.8050   -8.2600 N.ar  231  HIS231     -0.2268
    184  CD2       40.4590   41.6340   -6.9860 C.ar  231  HIS231      0.1154
    185  CE1       39.2530   40.2250   -8.2220 C.ar  231  HIS231      0.1986
    186  NE2       39.1790   41.3110   -7.4760 N.ar  231  HIS231     -0.2212
@<TRIPOS>BOND
     1   121   122    1
     2   123   122    1
     3   123   124    2
     4   122   125    1
     5   125   126    1
     6   126   128   ar
     7   126   127   ar
     8   128   130   ar
     9   127   129   ar
    10   171   172    2
    11   171   170    1
    12   169   170    1
    13   130   131   ar
    14   129   131   ar
    15   170   173    1
    16   114   113    2
    17   131   132    1
    18    53    51   ar
    19    53    54   ar
    20   133   134    1
    21   173   174    1
    22    51    50   ar
    23   113   112    1
    24    56    54   ar
    25    56    58   ar
    26   174   175   ar
    27   174   176   ar
    28    54    52   ar
    29   117   119   ar
    30   117   116   ar
    31   177   178    1
    32   138   137    1
    33   138   139    1
    34    48    47    2
    35   134   137    1
    36   134   135    1
    37   112   115    1
    38   112   111    1
    39   119   120   ar
    40   115   116    1
    41    50    52   ar
    42    50    49    1
    43    58    57   ar
    44   116   118   ar
    45    47    46    1
    46    52    55   ar
    47   141   139   ar
    48   135   136    2
    49   139   140   ar
    50   178   179    1
    51   178   181    1
    52   120   118   ar
    53   183   185   ar
    54   183   182   ar
    55   185   186   ar
    56    49    46    1
    57   179   180    2
    58    57    55   ar
    59    46    45    1
    60   182   181    1
    61   182   184   ar
    62   186   184   ar
    63    41    43   ar
    64    41    39   ar
    65    45    36   am
    66    43    44   ar
    67   105   104    2
    68    38    39    1
    69    38    35    1
    70    39    40   ar
    71    44    42   ar
    72    36    35    1
    73    36    37    2
    74   101   100   ar
    75   101    99   ar
    76    95    94    2
    77    35    34    1
    78   109   108   ar
    79   100    98   ar
    80   104   103    1
    81    40    42   ar
    82    99    97   ar
    83   103   106    1
    84   103   102    1
    85    12    11    1
    86    94   102   am
    87    94    93    1
    88    98    97   ar
    89   108   110   ar
    90   108   107    1
    91    97    96    1
    92    34    31   am
    93    32    31    2
    94   106   107    1
    95    28    26   am
    96   164   165    1
    97   164   163    1
    98   168   166    1
    99   166   165    2
   100   166   167    1
   101    93    96    1
   102    93    92    1
   103    31    30    1
   104    11     9   ar
   105    11    10   ar
   106    26    27    2
   107    26    25    1
   108     9     7   ar
   109   163   162    1
   110    10     8   ar
   111    25    22    1
   112    30    29    1
   113    30    33    1
   114    29    23   am
   115     7     6   ar
   116   162   159    1
   117    88    87    2
   118     8     6   ar
   119    23    22    1
   120    23    24    2
   121    22    21    1
   122     6     5    1
   123   147   149    1
   124   147   146    1
   125   159   160    1
   126   159   158    1
   127   148   146    1
   128   153   152    2
   129    87    86    1
   130    16    15    2
   131    21    15   am
   132    90    89    1
   133   146   143    1
   134   160   161    2
   135   157   155    1
   136   155   154    1
   137   155   156    1
   138     5     2    1
   139    15    14    1
   140   158   152   am
   141   152   151    1
   142    86    89    1
   143    86    85    1
   144   154   151    1
   145    13    14    1
   146    13     3   am
   147    89    91    1
   148     2     3    1
   149     2     1    1
   150    84    82    1
   151   151   150    1
   152    14    17    1
   153     3     4    2
   154   143   142    1
   155   143   144    1
   156    17    18    1
   157    75    76   ar
   158    75    73   ar
   159    76    74   ar
   160   145   144    2
   161    82    81    1
   162    82    83    1
   163    81    78    1
   164    20    18   am
   165    18    19    2
   166    74    72   ar
   167    73    71   ar
   168    80    79    2
   169    65    63    1
   170    78    79    1
   171    78    77    1
   172    72    71   ar
   173    71    70    1
   174    70    67    1
   175    63    64    1
   176    63    60    1
   177    62    61    2
   178    61    60    1
   179    61    66   am
   180    60    59    1
   181    67    66    1
   182    67    68    1
   183    68    69    2
