@<TRIPOS>MOLECULE
tmp/1thnC00.pdb
 170 164 0 0 0
SMALL
GASTEIGER

@<TRIPOS>ATOM
      1  N          9.1620   32.3720   82.6420 N.3    46  ALA46      -0.1245
      2  CA         8.1830   31.3560   82.2590 C.3    46  ALA46       0.1562
      3  C          8.8370   30.2760   81.3960 C.2    46  ALA46       0.2260
      4  O          8.7090   29.0900   81.6760 O.2    46  ALA46      -0.2867
      5  CB         7.0140   32.0080   81.5090 C.3    46  ALA46       0.0290
      6  N         11.0340   28.0970   83.3680 N.3    49  ASN49      -0.1225
      7  CA        10.2630   27.1390   84.1680 C.3    49  ASN49       0.1785
      8  C         10.0020   25.9030   83.3070 C.2    49  ASN49       0.2597
      9  O         10.3170   24.7790   83.6980 O.2    49  ASN49      -0.2718
     10  CB         8.9020   27.7250   84.6030 C.3    49  ASN49       0.1169
     11  CG         9.0140   28.6990   85.7610 C.2    49  ASN49       0.2627
     12  OD1        9.9710   28.6540   86.5290 O.2    49  ASN49      -0.2716
     13  ND2        8.0220   29.5690   85.9050 N.am   49  ASN49      -0.0877
     14  N          9.4240   26.1420   82.1300 N.am   50  ALA50      -0.1979
     15  CA         9.0850   25.0980   81.1650 C.3    50  ALA50       0.1597
     16  C         10.2230   24.1290   80.8860 C.2    50  ALA50       0.2287
     17  O         10.0610   22.9160   81.0260 O.2    50  ALA50      -0.2864
     18  CB         8.6240   25.7380   79.8500 C.3    50  ALA50       0.0319
     19  N         12.0720   22.8270   84.5200 N.3    53  HIS53      -0.1226
     20  CA        11.1010   22.1440   85.3670 C.3    53  HIS53       0.1752
     21  C         10.1920   21.3090   84.5010 C.2    53  HIS53       0.2596
     22  O         10.4520   20.1370   84.2570 O.2    53  HIS53      -0.2718
     23  CB        10.2260   23.1350   86.1260 C.3    53  HIS53       0.0759
     24  CG        10.9740   23.9720   87.1050 C.ar   53  HIS53       0.0818
     25  ND1       11.9920   23.4690   87.8870 N.ar   53  HIS53      -0.2268
     26  CD2       10.8320   25.2700   87.4540 C.ar   53  HIS53       0.1154
     27  CE1       12.4450   24.4240   88.6760 C.ar   53  HIS53       0.1986
     28  NE2       11.7570   25.5260   88.4330 N.ar   53  HIS53      -0.2212
     29  N          9.1110   21.9410   84.0510 N.am   54  GLY54      -0.1957
     30  CA         8.1390   21.2860   83.2000 C.3    54  GLY54       0.1869
     31  C          8.6880   20.1680   82.3300 C.2    54  GLY54       0.2309
     32  O          8.0870   19.0940   82.2650 O.2    54  GLY54      -0.2863
     33  N          3.1040   24.4470   78.1450 N.3    80  ASP80      -0.1239
     34  CA         3.9850   23.3090   78.0080 C.3    80  ASP80       0.1674
     35  C          3.1220   22.1000   78.3340 C.2    80  ASP80       0.2266
     36  O          2.0520   22.2300   78.9370 O.2    80  ASP80      -0.2867
     37  CB         5.1490   23.4090   78.9910 C.3    80  ASP80       0.1410
     38  CG         4.6970   23.3460   80.4390 C.2    80  ASP80       0.3668
     39  OD1        4.6100   22.2340   81.0140 O.co2  80  ASP80      -0.2456
     40  OD2        4.4130   24.4220   80.9970 O.co2  80  ASP80      -0.2456
     41  N          5.2270   17.6490   83.2020 N.3    83  VAL83      -0.1231
     42  CA         4.7880   17.3350   84.5570 C.3    83  VAL83       0.1692
     43  C          3.6730   18.1920   85.1390 C.2    83  VAL83       0.2593
     44  O          2.8240   17.6910   85.8760 O.2    83  VAL83      -0.2718
     45  CB         5.9630   17.3720   85.5450 C.3    83  VAL83       0.0266
     46  CG1        5.4710   16.9820   86.9490 C.3    83  VAL83       0.0020
     47  CG2        7.0660   16.4280   85.0820 C.3    83  VAL83       0.0020
     48  N          3.6640   19.4790   84.8260 N.am   84  GLY84      -0.1942
     49  CA         2.6250   20.3210   85.3810 C.3    84  GLY84       0.2014
     50  C          2.9250   20.5910   86.8430 C.2    84  GLY84       0.2639
     51  O          3.8970   20.0830   87.4010 O.2    84  GLY84      -0.2714
     52  N          2.0750   21.3820   87.4760 N.am   85  ILE85      -0.1963
     53  CA         2.2810   21.7430   88.8650 C.3    85  ILE85       0.1712
     54  C          1.3860   21.0150   89.8480 C.2    85  ILE85       0.2458
     55  O          0.1900   20.8440   89.6160 O.2    85  ILE85      -0.2730
     56  CB         2.0710   23.2670   89.0600 C.3    85  ILE85       0.0289
     57  CG1        3.1720   24.0360   88.3230 C.3    85  ILE85       0.0022
     58  CG2        2.0460   23.6220   90.5490 C.3    85  ILE85       0.0023
     59  CD1        2.9310   25.5370   88.2100 C.3    85  ILE85       0.0001
     60  N          1.9670   20.5420   90.9540 N.am   86  PRO86      -0.2727
     61  CA         1.1450   19.8510   91.9440 C.3    86  PRO86       0.1402
     62  C          0.3170   20.8780   92.7180 C.2    86  PRO86       0.2269
     63  O         -0.9160   20.7990   92.7390 O.2    86  PRO86      -0.2865
     64  CB         2.1780   19.1660   92.8310 C.3    86  PRO86       0.0296
     65  CG         3.2820   18.8570   91.8780 C.3    86  PRO86       0.0237
     66  CD         3.3820   20.1570   91.0980 C.3    86  PRO86       0.0939
     67  N          3.0630   27.0990   95.0950 N.3    91  ALA91      -0.1245
     68  CA         3.9840   27.5980   94.0790 C.3    91  ALA91       0.1562
     69  C          4.1150   29.1050   94.0650 C.2    91  ALA91       0.2260
     70  O          5.2240   29.6370   94.0370 O.2    91  ALA91      -0.2867
     71  CB         3.5530   27.1110   92.7100 C.3    91  ALA91       0.0290
     72  N          9.6060   29.8640   97.2340 N.3    96  PHE96      -0.1227
     73  CA         9.4730   28.4160   97.1520 C.3    96  PHE96       0.1736
     74  C         10.0500   27.8800   95.8520 C.2    96  PHE96       0.2596
     75  O          9.8870   28.4870   94.7960 O.2    96  PHE96      -0.2718
     76  CB         7.9980   28.0090   97.2690 C.3    96  PHE96       0.0547
     77  CG         7.6410   26.7800   96.4750 C.ar   96  PHE96      -0.0202
     78  CD1        8.1480   25.5260   96.8110 C.ar   96  PHE96      -0.0042
     79  CD2        6.8180   26.8860   95.3650 C.ar   96  PHE96      -0.0042
     80  CE1        7.8360   24.3930   96.0410 C.ar   96  PHE96      -0.0003
     81  CE2        6.5010   25.7670   94.5950 C.ar   96  PHE96      -0.0003
     82  CZ         7.0140   24.5170   94.9350 C.ar   96  PHE96      -0.0000
     83  N         10.7290   26.7410   95.9470 N.am   97  THR97      -0.1939
     84  CA        11.3210   26.0860   94.7880 C.3    97  THR97       0.2028
     85  C         11.6100   24.6070   95.0770 C.2    97  THR97       0.2643
     86  O         12.1470   24.2590   96.1360 O.2    97  THR97      -0.2714
     87  CB        12.6330   26.7840   94.3270 C.3    97  THR97       0.1808
     88  OG1       13.0900   26.1780   93.1100 O.3    97  THR97      -0.2208
     89  CG2       13.7300   26.6510   95.3840 C.3    97  THR97       0.0379
     90  N         11.2490   23.7520   94.1160 N.am   98  THR98      -0.1936
     91  CA        11.4310   22.3030   94.2070 C.3    98  THR98       0.2028
     92  C         12.8400   21.8500   93.8160 C.2    98  THR98       0.2642
     93  O         13.2910   20.7700   94.2100 O.2    98  THR98      -0.2714
     94  CB        10.3820   21.5600   93.3360 C.3    98  THR98       0.1808
     95  OG1       10.5200   21.9430   91.9610 O.3    98  THR98      -0.2208
     96  CG2        8.9780   21.9090   93.8040 C.3    98  THR98       0.0379
     97  N         13.5450   22.6730   93.0490 N.am   99  LYS99      -0.1977
     98  CA        14.8950   22.3150   92.6650 C.3    99  LYS99       0.1596
     99  C         15.9120   23.2280   93.3370 C.2    99  LYS99       0.2287
    100  O         16.7100   23.8830   92.6690 O.2    99  LYS99      -0.2864
    101  CB        15.0430   22.3370   91.1420 C.3    99  LYS99       0.0298
    102  CG        14.2840   21.1970   90.4790 C.3    99  LYS99       0.0038
    103  CD        14.4720   21.1580   88.9760 C.3    99  LYS99       0.0206
    104  CE        13.7060   19.9900   88.3770 C.3    99  LYS99       0.1093
    105  NZ        12.2540   20.0540   88.7060 N.3    99  LYS99      -0.1314
    106  N         18.2200   27.3340   92.3330 N.3   104  ARG104     -0.1231
    107  CA        16.9890   27.9710   91.8700 C.3   104  ARG104      0.1694
    108  C         16.3420   28.9030   92.9020 C.2   104  ARG104      0.2593
    109  O         15.6020   28.4600   93.7760 O.2   104  ARG104     -0.2718
    110  CB        15.9980   26.8980   91.4320 C.3   104  ARG104      0.0321
    111  CG        15.3250   27.1860   90.0940 C.3   104  ARG104      0.0489
    112  CD        16.2680   26.9850   88.9050 C.3   104  ARG104      0.2205
    113  NE        16.6280   28.2120   88.1810 N.pl3 104  ARG104     -0.0865
    114  CZ        15.7640   29.1350   87.7570 C.cat 104  ARG104      0.5346
    115  NH1       14.4680   29.0020   87.9880 N.pl3 104  ARG104      0.1354
    116  NH2       16.1920   30.1850   87.0700 N.pl3 104  ARG104      0.1354
    117  N         16.6130   30.2000   92.7590 N.am  105  SER105     -0.1938
    118  CA        16.1290   31.2620   93.6520 C.3   105  SER105      0.2055
    119  C         14.6790   31.2160   94.1560 C.2   105  SER105      0.2644
    120  O         14.4100   31.5720   95.3060 O.2   105  SER105     -0.2714
    121  CB        16.3740   32.6260   92.9950 C.3   105  SER105      0.2130
    122  OG        15.5670   32.7830   91.8400 O.3   105  SER105     -0.2179
    123  N         13.7470   30.7950   93.3120 N.am  106  GLY106     -0.1939
    124  CA        12.3560   30.7620   93.7310 C.3   106  GLY106      0.2014
    125  C         11.7360   32.1390   93.5860 C.2   106  GLY106      0.2639
    126  O         10.8580   32.5320   94.3640 O.2   106  GLY106     -0.2714
    127  N         12.2020   32.8630   92.5650 N.am  107  MET107     -0.1963
    128  CA        11.7670   34.2290   92.2580 C.3   107  MET107      0.1736
    129  C         10.9580   34.3270   90.9770 C.2   107  MET107      0.2617
    130  O         10.2420   35.3040   90.7590 O.2   107  MET107     -0.2715
    131  CB        12.9800   35.1360   92.1070 C.3   107  MET107      0.0427
    132  CG        13.7420   35.3710   93.3750 C.3   107  MET107      0.0599
    133  SD        12.6620   36.0690   94.6070 S.3   107  MET107     -0.1393
    134  CE        11.9280   37.4790   93.6950 C.3   107  MET107      0.0692
    135  N         11.1010   33.3160   90.1280 N.am  108  GLY108     -0.1940
    136  CA        10.4030   33.2850   88.8570 C.3   108  GLY108      0.2014
    137  C          8.9950   33.8390   88.8410 C.2   108  GLY108      0.2639
    138  O          8.7210   34.7920   88.1230 O.2   108  GLY108     -0.2714
    139  N          8.1040   33.2400   89.6260 N.am  109  PHE109     -0.1959
    140  CA         6.7100   33.6710   89.6850 C.3   109  PHE109      0.1771
    141  C          6.5320   35.0480   90.2930 C.2   109  PHE109      0.2620
    142  O          5.6940   35.8240   89.8360 O.2   109  PHE109     -0.2715
    143  CB         5.8570   32.6650   90.4820 C.3   109  PHE109      0.0574
    144  CG         5.2520   31.5630   89.6430 C.ar  109  PHE109     -0.0200
    145  CD1        5.3980   30.2390   90.0180 C.ar  109  PHE109     -0.0042
    146  CD2        4.5420   31.8510   88.4790 C.ar  109  PHE109     -0.0042
    147  CE1        4.8530   29.2230   89.2500 C.ar  109  PHE109     -0.0003
    148  CE2        3.9950   30.8380   87.7050 C.ar  109  PHE109     -0.0003
    149  CZ         4.1530   29.5230   88.0930 C.ar  109  PHE109     -0.0000
    150  N          7.3070   35.3590   91.3270 N.am  110  THR110     -0.1951
    151  CA         7.1750   36.6600   91.9740 C.3   110  THR110      0.1897
    152  C          7.6030   37.8010   91.0510 C.2   110  THR110      0.2313
    153  O          7.1530   38.9400   91.2120 O.2   110  THR110     -0.2863
    154  CB         7.9980   36.7150   93.2710 C.3   110  THR110      0.1794
    155  OG1        8.0140   35.4190   93.8920 O.3   110  THR110     -0.2208
    156  CG2        7.3720   37.7120   94.2250 C.3   110  THR110      0.0378
    157  N          1.6990   22.6430   82.2090 N.3   129  THR129     -0.1218
    158  CA         1.3910   23.9360   82.8040 C.3   129  THR129      0.1862
    159  C          1.2260   25.1020   81.8000 C.2   129  THR129      0.2287
    160  O          2.1280   25.4220   81.0320 O.2   129  THR129     -0.2866
    161  CB         2.4840   24.2490   83.8490 C.3   129  THR129      0.1770
    162  OG1        3.7540   23.8160   83.3520 O.3   129  THR129     -0.2211
    163  CG2        2.2380   23.4760   85.1090 C.3   129  THR129      0.0375
    164  N          0.5420   29.1130   81.5530 N.3   131  VAL131     -0.1245
    165  CA         0.5050   30.4050   82.2720 C.3   131  VAL131      0.1561
    166  C          0.1180   31.6000   81.3950 C.2   131  VAL131      0.2260
    167  O          0.6590   31.7670   80.3020 O.2   131  VAL131     -0.2867
    168  CB         1.8640   30.7420   82.9080 C.3   131  VAL131      0.0252
    169  CG1        1.7650   32.0420   83.6830 C.3   131  VAL131      0.0019
    170  CG2        2.2910   29.6410   83.8250 C.3   131  VAL131      0.0019
@<TRIPOS>BOND
     1    34    33    1
     2    34    35    1
     3    34    37    1
     4    35    36    2
     5    37    38    1
     6    18    15    1
     7   167   166    2
     8    38    40   ar
     9    38    39   ar
    10    16    17    2
    11    16    15    1
    12   160   159    2
    13    15    14    1
    14   166   165    1
    15     3     4    2
    16     3     2    1
    17     5     2    1
    18   164   165    1
    19   159   158    1
    20    14     8   am
    21   157   158    1
    22     2     1    1
    23    32    31    2
    24   165   168    1
    25    31    30    1
    26   158   161    1
    27   168   169    1
    28   168   170    1
    29    30    29    1
    30    41    42    1
    31     8     9    2
    32     8     7    1
    33   162   161    1
    34     6     7    1
    35   161   163    1
    36    29    21   am
    37     7    10    1
    38    22    21    2
    39    21    20    1
    40    19    20    1
    41    42    43    1
    42    42    45    1
    43    10    11    1
    44    48    43   am
    45    48    49    1
    46    47    45    1
    47    43    44    2
    48    20    23    1
    49    49    50    1
    50    45    46    1
    51    11    13   am
    52    11    12    2
    53    23    24    1
    54    50    51    2
    55    50    52   am
    56   116   114    1
    57    24    26   ar
    58    24    25   ar
    59    26    28   ar
    60    52    53    1
    61   148   149   ar
    62   148   146   ar
    63   114   115    1
    64   114   113    2
    65    25    27   ar
    66   149   147   ar
    67   138   137    2
    68   113   112    1
    69    59    57    1
    70    57    56    1
    71   104   105    1
    72   104   103    1
    73    28    27   ar
    74   146   144   ar
    75   137   136    1
    76   137   139   am
    77   136   135    1
    78    53    56    1
    79    53    54    1
    80   112   111    1
    81   103   102    1
    82    56    58    1
    83   147   145   ar
    84    55    54    2
    85   139   140    1
    86   144   145   ar
    87   144   143    1
    88   140   141    1
    89   140   143    1
    90   142   141    2
    91    54    60   am
    92   111   110    1
    93   135   129   am
    94   141   150   am
    95   102   101    1
    96   130   129    2
    97    60    66    1
    98    60    61    1
    99   129   128    1
   100   152   153    2
   101   152   151    1
   102    66    65    1
   103   101    98    1
   104   150   151    1
   105   110   107    1
   106   122   121    1
   107   107   106    1
   108   107   108    1
   109    65    64    1
   110    61    62    1
   111    61    64    1
   112    95    94    1
   113   151   154    1
   114   131   128    1
   115   131   132    1
   116   128   127    1
   117   127   125   am
   118    98    97    1
   119    98    99    1
   120   100    99    2
   121    71    68    1
   122    62    63    2
   123   117   108   am
   124   117   118    1
   125   108   109    2
   126   121   118    1
   127    97    92   am
   128    88    87    1
   129   154   155    1
   130   154   156    1
   131   123   124    1
   132   123   119   am
   133    94    96    1
   134    94    91    1
   135   132   133    1
   136   125   124    1
   137   125   126    2
   138   118   119    1
   139   134   133    1
   140    92    91    1
   141    92    93    2
   142    70    69    2
   143    69    68    1
   144    68    67    1
   145    90    91    1
   146    90    85   am
   147   119   120    2
   148    87    84    1
   149    87    89    1
   150    81    82   ar
   151    81    79   ar
   152    84    85    1
   153    84    83    1
   154    75    74    2
   155    82    80   ar
   156    85    86    2
   157    79    77   ar
   158    74    83   am
   159    74    73    1
   160    80    78   ar
   161    77    78   ar
   162    77    76    1
   163    73    72    1
   164    73    76    1
