@<TRIPOS>MOLECULE
tmp/1thqA00.pdb
 196 185 0 0 0
SMALL
GASTEIGER

@<TRIPOS>ATOM
      1  N         21.9730   44.5200   10.0780 N.3    20  TYR20      -0.1241
      2  CA        20.7150   43.8020    9.9640 C.3    20  TYR20       0.1605
      3  C         21.0240   42.3130    9.8900 C.2    20  TYR20       0.2264
      4  O         21.8200   41.8660    9.0310 O.2    20  TYR20      -0.2867
      5  CB        20.0130   44.1730    8.6530 C.3    20  TYR20       0.0534
      6  CG        19.5770   45.6240    8.5160 C.ar   20  TYR20      -0.0201
      7  CD1       20.4910   46.6490    8.2070 C.ar   20  TYR20      -0.0009
      8  CD2       18.2370   45.9570    8.7200 C.ar   20  TYR20      -0.0009
      9  CE1       20.0310   47.9950    8.0640 C.ar   20  TYR20       0.0417
     10  CE2       17.7790   47.2750    8.5850 C.ar   20  TYR20       0.0417
     11  CZ        18.6670   48.2690    8.2540 C.ar   20  TYR20       0.1957
     12  OH        18.1440   49.5510    8.1480 O.3    20  TYR20      -0.2866
     13  N         11.5650   33.4740    9.5900 N.3    25  THR25      -0.1218
     14  CA        10.5850   33.6790    8.5340 C.3    25  THR25       0.1862
     15  C          9.5120   32.6410    8.7440 C.2    25  THR25       0.2287
     16  O          9.7960   31.5120    9.1750 O.2    25  THR25      -0.2866
     17  CB        11.2550   33.6560    7.1100 C.3    25  THR25       0.1770
     18  OG1       10.2540   33.8330    6.1000 O.3    25  THR25      -0.2211
     19  CG2       11.8950   32.2890    6.7800 C.3    25  THR25       0.0375
     20  N         17.5020   32.6300    8.7000 N.3    34  PRO34      -0.2116
     21  CA        17.6780   32.7070    7.2370 C.3    34  PRO34       0.1372
     22  C         19.0880   33.2230    6.8890 C.2    34  PRO34       0.2244
     23  O         19.6500   34.0130    7.6530 O.2    34  PRO34      -0.2868
     24  CB        16.6240   33.7370    6.7940 C.3    34  PRO34       0.0268
     25  CG        15.6330   33.7850    7.9310 C.3    34  PRO34       0.0207
     26  CD        16.4230   33.5150    9.1890 C.3    34  PRO34       0.0892
     27  N         11.5510   56.9820   12.1110 N.3    50  TRP50      -0.1241
     28  CA        12.7760   56.3130   11.6500 C.3    50  TRP50       0.1605
     29  C         12.9450   56.3700   10.1440 C.2    50  TRP50       0.2264
     30  O         11.9850   56.1140    9.4130 O.2    50  TRP50      -0.2867
     31  CB        12.7560   54.8300   12.0660 C.3    50  TRP50       0.0550
     32  CG        14.0440   54.1120   11.7350 C.ar   50  TRP50       0.0003
     33  CD1       15.2190   54.2100   12.4120 C.ar   50  TRP50       0.0946
     34  CD2       14.2780   53.1850   10.6630 C.ar   50  TRP50       0.0152
     35  NE1       16.1650   53.3900   11.8470 N.ar   50  TRP50      -0.2442
     36  CE2       15.6260   52.7590   10.7640 C.ar   50  TRP50       0.0810
     37  CE3       13.4950   52.6810    9.6140 C.ar   50  TRP50       0.0012
     38  CZ2       16.2110   51.8120    9.8860 C.ar   50  TRP50       0.0191
     39  CZ3       14.0950   51.7520    8.7000 C.ar   50  TRP50       0.0001
     40  CH2       15.4340   51.3180    8.8680 C.ar   50  TRP50       0.0015
     41  N         19.4810   51.0530    3.2870 N.3    54  TYR54      -0.1241
     42  CA        20.0710   49.7430    3.6030 C.3    54  TYR54       0.1605
     43  C         20.5300   49.0100    2.3490 C.2    54  TYR54       0.2264
     44  O         20.0540   49.2880    1.2230 O.2    54  TYR54      -0.2867
     45  CB        19.0370   48.8690    4.3740 C.3    54  TYR54       0.0534
     46  CG        17.7930   48.5870    3.5620 C.ar   54  TYR54      -0.0201
     47  CD1       17.7360   47.4820    2.7090 C.ar   54  TYR54      -0.0009
     48  CD2       16.6600   49.4190    3.6520 C.ar   54  TYR54      -0.0009
     49  CE1       16.6440   47.2430    1.9290 C.ar   54  TYR54       0.0417
     50  CE2       15.5420   49.1760    2.8850 C.ar   54  TYR54       0.0417
     51  CZ        15.5360   48.0760    2.0250 C.ar   54  TYR54       0.1957
     52  OH        14.4390   47.8000    1.2380 O.3    54  TYR54      -0.2866
     53  N         21.2260   44.7940    1.5440 N.3    56  MET56      -0.1245
     54  CA        21.2290   43.4340    2.0970 C.3    56  MET56       0.1570
     55  C         21.5290   42.4260    1.0290 C.2    56  MET56       0.2261
     56  O         21.3800   42.6980   -0.1830 O.2    56  MET56      -0.2867
     57  CB        19.8730   43.0860    2.7020 C.3    56  MET56       0.0387
     58  CG        19.4550   43.9500    3.8910 C.3    56  MET56       0.0595
     59  SD        17.7020   43.6190    4.1120 S.3    56  MET56      -0.1393
     60  CE        17.6410   43.6780    5.8850 C.3    56  MET56       0.0692
     61  N         20.7710   38.2460    0.2520 N.3    58  PHE58      -0.1227
     62  CA        20.1840   36.9530    0.5380 C.3    58  PHE58       0.1736
     63  C         20.6280   35.9410   -0.4850 C.2    58  PHE58       0.2595
     64  O         21.4030   36.2320   -1.4050 O.2    58  PHE58      -0.2718
     65  CB        18.6360   37.1070    0.6060 C.3    58  PHE58       0.0547
     66  CG        18.2090   38.0990    1.6260 C.ar   58  PHE58      -0.0202
     67  CD1       17.7640   39.3680    1.2510 C.ar   58  PHE58      -0.0042
     68  CD2       18.3270   37.7980    2.9880 C.ar   58  PHE58      -0.0042
     69  CE1       17.4050   40.3130    2.2080 C.ar   58  PHE58      -0.0003
     70  CE2       17.9710   38.7370    3.9580 C.ar   58  PHE58      -0.0003
     71  CZ        17.4980   40.0000    3.5700 C.ar   58  PHE58      -0.0000
     72  N         20.1430   34.7220   -0.3020 N.am   59  LYS59      -0.1966
     73  CA        20.4100   33.6190   -1.1870 C.3    59  LYS59       0.1728
     74  C         19.0590   33.2620   -1.7970 C.2    59  LYS59       0.2616
     75  O         18.0880   33.1030   -1.0620 O.2    59  LYS59      -0.2715
     76  CB        20.9140   32.4570   -0.3310 C.3    59  LYS59       0.0311
     77  CG        22.0260   31.6490   -0.8850 C.3    59  LYS59       0.0038
     78  CD        22.3110   30.4760    0.0450 C.3    59  LYS59       0.0206
     79  CE        23.6610   30.6240    0.6990 C.3    59  LYS59       0.1093
     80  NZ        24.2920   29.3390    1.0660 N.3    59  LYS59      -0.1314
     81  N         18.9680   33.1580   -3.1210 N.am   60  ASP60      -0.1971
     82  CA        17.6800   32.8110   -3.7170 C.3    60  ASP60       0.1709
     83  C         17.4610   31.2840   -3.7430 C.2    60  ASP60       0.2293
     84  O         18.2750   30.5330   -3.2040 O.2    60  ASP60      -0.2864
     85  CB        17.5070   33.4520   -5.1080 C.3    60  ASP60       0.1436
     86  CG        18.4600   32.8970   -6.1540 C.2    60  ASP60       0.3671
     87  OD1       19.0980   31.8370   -5.9540 O.co2  60  ASP60      -0.2456
     88  OD2       18.6200   33.4600   -7.2570 O.co2  60  ASP60      -0.2456
     89  N         21.2970   37.3610   -4.0350 N.3    66  GLU66      -0.1245
     90  CA        20.0860   38.1300   -4.2820 C.3    66  GLU66       0.1567
     91  C         20.1310   39.4160   -3.4750 C.2    66  GLU66       0.2260
     92  O         19.8270   39.3970   -2.2830 O.2    66  GLU66      -0.2867
     93  CB        18.8610   37.2760   -3.9220 C.3    66  GLU66       0.0388
     94  CG        17.5440   38.0090   -3.7250 C.3    66  GLU66       0.1160
     95  CD        16.4470   37.0530   -3.2830 C.2    66  GLU66       0.3649
     96  OE1       15.9060   36.3510   -4.1720 O.co2  66  GLU66      -0.2457
     97  OE2       16.1620   36.9810   -2.0610 O.co2  66  GLU66      -0.2457
     98  N         19.1460   43.3230   -2.2220 N.3    68  ILE68      -0.1245
     99  CA        18.0770   44.2980   -2.1450 C.3    68  ILE68       0.1561
    100  C         18.6740   45.5310   -1.4980 C.2    68  ILE68       0.2260
    101  O         19.4610   45.4380   -0.5550 O.2    68  ILE68      -0.2867
    102  CB        16.8200   43.7700   -1.3690 C.3    68  ILE68       0.0252
    103  CG1       15.7270   44.8510   -1.3220 C.3    68  ILE68       0.0019
    104  CG2       17.1710   43.3820    0.0740 C.3    68  ILE68       0.0019
    105  CD1       14.2760   44.3010   -1.0780 C.3    68  ILE68       0.0001
    106  N         13.8770   52.7960    3.9860 N.3    72  GLY72      -0.1225
    107  CA        12.7980   52.3930    4.8990 C.3    72  GLY72       0.1811
    108  C         12.3660   53.5700    5.7670 C.2    72  GLY72       0.2280
    109  O         13.1790   54.4500    6.0870 O.2    72  GLY72      -0.2866
    110  N          8.9450   50.1690    3.0450 N.3    92  THR92      -0.1218
    111  CA        10.2090   50.3320    2.3640 C.3    92  THR92       0.1862
    112  C          9.9880   50.3860    0.8570 C.2    92  THR92       0.2287
    113  O          9.1880   49.6150    0.3070 O.2    92  THR92      -0.2866
    114  CB        11.2530   49.2380    2.7550 C.3    92  THR92       0.1770
    115  OG1       12.4200   49.3860    1.9290 O.3    92  THR92      -0.2211
    116  CG2       10.7570   47.8150    2.4410 C.3    92  THR92       0.0375
    117  N          7.2220   47.3220    0.1000 N.3   110  LEU110     -0.1245
    118  CA         6.8180   46.4090    1.1730 C.3   110  LEU110      0.1561
    119  C          6.5030   47.1450    2.4570 C.2   110  LEU110      0.2260
    120  O          7.0760   48.1960    2.7240 O.2   110  LEU110     -0.2867
    121  CB         7.9220   45.3930    1.4930 C.3   110  LEU110      0.0270
    122  CG         8.4270   44.5390    0.3280 C.3   110  LEU110      0.0019
    123  CD1        9.7580   43.8940    0.7020 C.3   110  LEU110      0.0001
    124  CD2        7.3960   43.4960   -0.0340 C.3   110  LEU110      0.0001
    125  N          6.4500   47.6980    6.6330 N.3   112  LEU112     -0.1245
    126  CA         7.4210   47.5070    7.7290 C.3   112  LEU112      0.1561
    127  C          6.7100   47.6720    9.0550 C.2   112  LEU112      0.2260
    128  O          5.8060   48.5100    9.1770 O.2   112  LEU112     -0.2867
    129  CB         8.5250   48.5550    7.6770 C.3   112  LEU112      0.0270
    130  CG         9.6020   48.5450    6.5960 C.3   112  LEU112      0.0019
    131  CD1       10.5450   49.7810    6.8090 C.3   112  LEU112      0.0001
    132  CD2       10.3760   47.2410    6.7010 C.3   112  LEU112      0.0001
    133  N         12.4630   43.9470   13.6010 N.3   123  GLN123     -0.1245
    134  CA        11.8130   44.6410   12.5210 C.3   123  GLN123      0.1566
    135  C         11.4530   43.6130   11.4380 C.2   123  GLN123      0.2260
    136  O         12.2110   42.6710   11.2160 O.2   123  GLN123     -0.2867
    137  CB        12.7880   45.7030   11.9510 C.3   123  GLN123      0.0367
    138  CG        12.1800   46.6130   10.8400 C.3   123  GLN123      0.0905
    139  CD        13.1010   47.7190   10.4060 C.2   123  GLN123      0.2608
    140  OE1       14.3200   47.5200   10.3270 O.2   123  GLN123     -0.2717
    141  NE2       12.5370   48.9140   10.1850 N.am  123  GLN123     -0.0878
    142  N          8.7160   42.4320    7.7570 N.3   125  THR125     -0.1218
    143  CA         7.8690   42.7790    6.6100 C.3   125  THR125      0.1862
    144  C          6.9610   41.5940    6.2980 C.2   125  THR125      0.2287
    145  O          7.1370   40.4850    6.8570 O.2   125  THR125     -0.2866
    146  CB         8.7490   43.1950    5.3970 C.3   125  THR125      0.1770
    147  OG1        7.9100   43.6190    4.3040 O.3   125  THR125     -0.2211
    148  CG2        9.5370   41.9830    4.8350 C.3   125  THR125      0.0375
    149  N          6.0350   39.7320    2.8140 N.3   127  ILE127     -0.1245
    150  CA         6.2910   39.6070    1.3830 C.3   127  ILE127      0.1561
    151  C          5.0220   39.0140    0.7580 C.2   127  ILE127      0.2260
    152  O          4.6650   37.8620    1.0810 O.2   127  ILE127     -0.2867
    153  CB         7.4980   38.6690    1.1210 C.3   127  ILE127      0.0252
    154  CG1        8.7670   39.1570    1.8480 C.3   127  ILE127      0.0019
    155  CG2        7.7010   38.4310   -0.4110 C.3   127  ILE127      0.0019
    156  CD1        9.1480   40.6090    1.5200 C.3   127  ILE127      0.0001
    157  N          8.1470   32.6590   -4.0560 N.3   133  ASN133     -0.1240
    158  CA         8.4270   32.3520   -2.6450 C.3   133  ASN133      0.1653
    159  C          7.9250   33.4200   -1.6670 C.2   133  ASN133      0.2266
    160  O          8.5780   33.7450   -0.6660 O.2   133  ASN133     -0.2867
    161  CB         9.9140   32.0610   -2.4260 C.3   133  ASN133      0.1155
    162  CG        10.3980   30.9140   -3.2770 C.2   133  ASN133      0.2627
    163  OD1        9.6730   29.9390   -3.5000 O.2   133  ASN133     -0.2716
    164  ND2       11.6110   31.0270   -3.7790 N.am  133  ASN133     -0.0877
    165  N          4.9890   35.2930    2.9070 N.3   136  VAL136     -0.1245
    166  CA         5.6920   34.9620    4.1520 C.3   136  VAL136      0.1561
    167  C          5.9980   36.2070    4.9280 C.2   136  VAL136      0.2260
    168  O          6.1920   37.2400    4.3260 O.2   136  VAL136     -0.2867
    169  CB         7.0470   34.2360    3.8800 C.3   136  VAL136      0.0252
    170  CG1        6.8000   32.8610    3.2560 C.3   136  VAL136      0.0019
    171  CG2        7.9730   35.0660    2.9820 C.3   136  VAL136      0.0019
    172  N          8.8720   37.9610    7.1660 N.3   138  PHE138     -0.1241
    173  CA        10.3070   37.8150    7.2510 C.3   138  PHE138      0.1605
    174  C         10.7600   38.8670    8.2470 C.2   138  PHE138      0.2264
    175  O         10.4450   40.0590    8.0720 O.2   138  PHE138     -0.2867
    176  CB        10.9040   38.0560    5.8600 C.3   138  PHE138      0.0534
    177  CG        12.3590   37.7040    5.7600 C.ar  138  PHE138     -0.0203
    178  CD1       12.7540   36.4070    5.3520 C.ar  138  PHE138     -0.0042
    179  CD2       13.3290   38.6600    6.0260 C.ar  138  PHE138     -0.0042
    180  CE1       14.1320   36.0730    5.2310 C.ar  138  PHE138     -0.0003
    181  CE2       14.7410   38.3170    5.9500 C.ar  138  PHE138     -0.0003
    182  CZ        15.1040   37.0280    5.5480 C.ar  138  PHE138     -0.0000
    183  N         14.0090   40.4030   11.0360 N.3   140  TRP140     -0.1241
    184  CA        15.4480   40.5230   11.2880 C.3   140  TRP140      0.1605
    185  C         15.6390   41.3360   12.5690 C.2   140  TRP140      0.2264
    186  O         14.7270   42.0680   12.9820 O.2   140  TRP140     -0.2867
    187  CB        16.1740   41.2430   10.1190 C.3   140  TRP140      0.0550
    188  CG        15.5760   42.5530    9.7300 C.ar  140  TRP140      0.0003
    189  CD1       15.9010   43.7970   10.2200 C.ar  140  TRP140      0.0946
    190  CD2       14.4910   42.7530    8.8100 C.ar  140  TRP140      0.0152
    191  NE1       15.1120   44.7520    9.6230 N.ar  140  TRP140     -0.2442
    192  CE2       14.2410   44.1480    8.7560 C.ar  140  TRP140      0.0810
    193  CE3       13.7290   41.8930    7.9900 C.ar  140  TRP140      0.0012
    194  CZ2       13.2260   44.7170    7.9550 C.ar  140  TRP140      0.0191
    195  CZ3       12.7050   42.4610    7.1690 C.ar  140  TRP140      0.0001
    196  CH2       12.4700   43.8610    7.1740 C.ar  140  TRP140      0.0015
@<TRIPOS>BOND
     1    88    86   ar
     2    86    87   ar
     3    86    85    1
     4    85    82    1
     5    90    89    1
     6    90    93    1
     7    90    91    1
     8    96    95   ar
     9   157   158    1
    10    93    94    1
    11   164   162   am
    12    83    82    1
    13    83    84    2
    14    94    95    1
    15    82    81    1
    16   163   162    2
    17    91    92    2
    18    95    97   ar
    19   162   161    1
    20    81    74   am
    21   158   161    1
    22   158   159    1
    23    98    99    1
    24    99   100    1
    25    99   102    1
    26    74    73    1
    27    74    75    2
    28   159   160    2
    29   100   101    2
    30    64    63    2
    31   102   103    1
    32   102   104    1
    33   103   105    1
    34    73    76    1
    35    73    72    1
    36    77    76    1
    37    77    78    1
    38    63    72   am
    39    63    62    1
    40   155   153    1
    41    56    55    2
    42   124   122    1
    43    78    79    1
    44   117   118    1
    45    61    62    1
    46   113   112    2
    47   122   123    1
    48   122   121    1
    49    62    65    1
    50    65    66    1
    51    79    80    1
    52   151   152    2
    53   151   150    1
    54   112   111    1
    55    55    54    1
    56   153   150    1
    57   153   154    1
    58   118   121    1
    59   118   119    1
    60    44    43    2
    61    52    51    1
    62    67    66   ar
    63    67    69   ar
    64   150   149    1
    65   156   154    1
    66    53    54    1
    67    66    68   ar
    68   115   114    1
    69    49    51   ar
    70    49    47   ar
    71    51    50   ar
    72    54    57    1
    73    69    71   ar
    74    43    42    1
    75   111   114    1
    76   111   110    1
    77   116   114    1
    78   119   120    2
    79    57    58    1
    80    47    46   ar
    81    50    48   ar
    82   165   166    1
    83   171   169    1
    84    68    70   ar
    85   170   169    1
    86    41    42    1
    87    46    48   ar
    88    46    45    1
    89    71    70   ar
    90    42    45    1
    91   169   166    1
    92    58    59    1
    93   106   107    1
    94    59    60    1
    95   166   167    1
    96   147   146    1
    97   168   167    2
    98   148   146    1
    99   107   108    1
   100   180   178   ar
   101   180   182   ar
   102   178   177   ar
   103   146   143    1
   104   182   181   ar
   105   177   176    1
   106   177   179   ar
   107   108   109    2
   108   176   173    1
   109   181   179   ar
   110    18    17    1
   111   144   143    1
   112   144   145    2
   113   130   132    1
   114   130   131    1
   115   130   129    1
   116   143   142    1
   117   125   126    1
   118    19    17    1
   119    24    21    1
   120    24    25    1
   121    22    21    1
   122    22    23    2
   123    17    14    1
   124   172   173    1
   125   195   196   ar
   126   195   193   ar
   127   196   194   ar
   128    21    20    1
   129   173   174    1
   130   129   126    1
   131   126   127    1
   132    25    26    1
   133   194   192   ar
   134   193   190   ar
   135     9     7   ar
   136     9    11   ar
   137   175   174    2
   138    12    11    1
   139     7     6   ar
   140    11    10   ar
   141     6     5    1
   142     6     8   ar
   143    14    15    1
   144    14    13    1
   145    10     8   ar
   146     5     2    1
   147    39    40   ar
   148    39    37   ar
   149    20    26    1
   150    15    16    2
   151   192   190   ar
   152   192   191   ar
   153   190   188   ar
   154    40    38   ar
   155     4     3    2
   156   127   128    2
   157    30    29    2
   158    37    34   ar
   159   191   189   ar
   160   188   187    1
   161   188   189   ar
   162    38    36   ar
   163     3     2    1
   164     2     1    1
   165   187   184    1
   166    29    28    1
   167   141   139   am
   168   140   139    2
   169   139   138    1
   170    34    36   ar
   171    34    32   ar
   172    36    35   ar
   173   138   137    1
   174   183   184    1
   175   136   135    2
   176   184   185    1
   177   135   134    1
   178    28    31    1
   179    28    27    1
   180    32    31    1
   181    32    33   ar
   182    35    33   ar
   183   137   134    1
   184   134   133    1
   185   185   186    2
