@<TRIPOS>MOLECULE
tmp/1thqA02.pdb
 84 82 0 0 0
SMALL
GASTEIGER

@<TRIPOS>ATOM
      1  N          6.6740   55.3650   10.9150 N.3    75  SER75      -0.1202
      2  CA         5.9660   56.1650   11.9290 C.3    75  SER75       0.2020
      3  C          6.1420   55.4660   13.2770 C.2    75  SER75       0.2619
      4  O          5.8160   54.2810   13.3900 O.2    75  SER75      -0.2717
      5  CB         4.4810   56.2880   11.5620 C.3    75  SER75       0.2103
      6  OG         3.7660   57.0660   12.5070 O.3    75  SER75      -0.2182
      7  N          6.6750   56.1780   14.2790 N.am   76  THR76      -0.1938
      8  CA         7.1680   55.5570   15.5300 C.3    76  THR76       0.2028
      9  C          6.4470   56.0800   16.7650 C.2    76  THR76       0.2642
     10  O          6.1370   57.2670   16.8570 O.2    76  THR76      -0.2714
     11  CB         8.6900   55.7860   15.6530 C.3    76  THR76       0.1808
     12  OG1        9.3370   55.2330   14.5030 O.3    76  THR76      -0.2208
     13  CG2        9.3140   55.0060   16.8220 C.3    76  THR76       0.0379
     14  N          6.1550   55.1700   17.6890 N.am   77  TRP77      -0.1973
     15  CA         5.4000   55.4540   18.8930 C.3    77  TRP77       0.1640
     16  C          6.2700   55.0340   20.0500 C.2    77  TRP77       0.2290
     17  O          6.8950   53.9540   20.0070 O.2    77  TRP77      -0.2864
     18  CB         4.1140   54.6240   18.8870 C.3    77  TRP77       0.0576
     19  CG         3.0480   54.9500   19.8990 C.ar   77  TRP77       0.0006
     20  CD1        2.7240   56.1790   20.4290 C.ar   77  TRP77       0.0946
     21  CD2        2.1170   54.0210   20.4660 C.ar   77  TRP77       0.0152
     22  NE1        1.6720   56.0530   21.3070 N.ar   77  TRP77      -0.2442
     23  CE2        1.2790   54.7400   21.3440 C.ar   77  TRP77       0.0810
     24  CE3        1.9200   52.6390   20.3360 C.ar   77  TRP77       0.0012
     25  CZ2        0.2640   54.1240   22.0810 C.ar   77  TRP77       0.0191
     26  CZ3        0.9060   52.0320   21.0680 C.ar   77  TRP77       0.0001
     27  CH2        0.1020   52.7680   21.9290 C.ar   77  TRP77       0.0015
     28  N          7.7640   51.3230   19.0010 N.3    87  LEU87      -0.1231
     29  CA         7.0140   50.4820   18.0670 C.3    87  LEU87       0.1693
     30  C          6.8230   51.3320   16.8240 C.2    87  LEU87       0.2593
     31  O          6.7240   52.5660   16.9150 O.2    87  LEU87      -0.2718
     32  CB         5.6420   50.1290   18.6550 C.3    87  LEU87       0.0284
     33  CG         5.8550   49.3440   19.9660 C.3    87  LEU87       0.0019
     34  CD1        5.8070   50.3090   21.1630 C.3    87  LEU87       0.0001
     35  CD2        4.8610   48.2400   20.1580 C.3    87  LEU87       0.0001
     36  N          6.7780   50.6920   15.6590 N.am   88  GLY88      -0.1942
     37  CA         6.7180   51.4480   14.4140 C.3    88  GLY88       0.2014
     38  C          5.9650   50.7040   13.3320 C.2    88  GLY88       0.2638
     39  O          5.8660   49.4590   13.3440 O.2    88  GLY88      -0.2714
     40  N          5.4840   51.4750   12.3710 N.am   89  LEU89      -0.1977
     41  CA         4.8000   50.9630   11.2050 C.3    89  LEU89       0.1596
     42  C          5.1290   51.9150   10.0420 C.2    89  LEU89       0.2287
     43  O          5.0090   53.1350   10.1790 O.2    89  LEU89      -0.2864
     44  CB         3.2910   50.9550   11.4700 C.3    89  LEU89       0.0297
     45  CG         2.3010   50.1330   10.6350 C.3    89  LEU89       0.0022
     46  CD1        0.8410   50.3990   11.1630 C.3    89  LEU89       0.0001
     47  CD2        2.3730   50.4160    9.1560 C.3    89  LEU89       0.0001
     48  N          7.1170   46.8650   10.0400 N.3   113  ALA113     -0.1231
     49  CA         6.6600   47.0040   11.4210 C.3   113  ALA113      0.1694
     50  C          7.8460   46.6560   12.2950 C.2   113  ALA113      0.2593
     51  O          8.7090   45.8560   11.8980 O.2   113  ALA113     -0.2718
     52  CB         5.5040   46.0620   11.7330 C.3   113  ALA113      0.0304
     53  N          7.9110   47.2520   13.4790 N.am  114  SER114     -0.1938
     54  CA         8.9900   46.9500   14.3990 C.3   114  SER114      0.2055
     55  C          8.6520   47.2370   15.8490 C.2   114  SER114      0.2642
     56  O          7.7700   48.0400   16.1500 O.2   114  SER114     -0.2714
     57  CB        10.2840   47.7030   14.0220 C.3   114  SER114      0.2130
     58  OG        10.1880   49.0750   14.3760 O.3   114  SER114     -0.2179
     59  N          9.3530   46.5250   16.7280 N.am  115  VAL115     -0.1977
     60  CA         9.3330   46.7830   18.1670 C.3   115  VAL115      0.1596
     61  C         10.7740   46.6680   18.6190 C.2   115  VAL115      0.2287
     62  O         11.5040   45.7130   18.2580 O.2   115  VAL115     -0.2864
     63  CB         8.4350   45.7840   18.9230 C.3   115  VAL115      0.0276
     64  CG1        8.4130   46.1060   20.4350 C.3   115  VAL115      0.0022
     65  CG2        6.9800   45.8340   18.4010 C.3   115  VAL115      0.0022
     66  N         13.5230   44.4960   16.7220 N.3   122  PHE122     -0.1241
     67  CA        12.9880   43.4110   15.9030 C.3   122  PHE122      0.1605
     68  C         12.0970   44.0830   14.8720 C.2   122  PHE122      0.2264
     69  O         11.0810   44.6840   15.1910 O.2   122  PHE122     -0.2867
     70  CB        12.2470   42.4200   16.8220 C.3   122  PHE122      0.0534
     71  CG        11.5810   41.2350   16.1130 C.ar  122  PHE122     -0.0203
     72  CD1       12.2680   40.0080   15.9910 C.ar  122  PHE122     -0.0042
     73  CD2       10.2740   41.3280   15.6480 C.ar  122  PHE122     -0.0042
     74  CE1       11.6620   38.8950   15.3740 C.ar  122  PHE122     -0.0003
     75  CE2        9.6560   40.2410   15.0350 C.ar  122  PHE122     -0.0003
     76  CZ        10.3530   39.0150   14.8980 C.ar  122  PHE122     -0.0000
     77  N         10.3190   43.8140   10.7600 N.3   124  MET124     -0.1245
     78  CA         9.8230   42.7640    9.8790 C.3   124  MET124      0.1570
     79  C          9.0020   43.3170    8.7170 C.2   124  MET124      0.2261
     80  O          8.5810   44.4930    8.7160 O.2   124  MET124     -0.2867
     81  CB         8.9630   41.7590   10.6860 C.3   124  MET124      0.0387
     82  CG         7.6840   42.3940   11.2610 C.3   124  MET124      0.0595
     83  SD         6.7320   41.1270   12.1140 S.3   124  MET124     -0.1393
     84  CE         6.0030   40.3210   10.6810 C.3   124  MET124      0.0692
@<TRIPOS>BOND
     1    80    79    2
     2    79    78    1
     3    47    45    1
     4    78    81    1
     5    78    77    1
     6    48    49    1
     7    42    43    2
     8    42    41    1
     9    45    46    1
    10    45    44    1
    11    84    83    1
    12    81    82    1
    13     1     2    1
    14    41    44    1
    15    41    40    1
    16    82    83    1
    17    49    52    1
    18    49    50    1
    19     5     2    1
    20     5     6    1
    21    51    50    2
    22     2     3    1
    23    50    53   am
    24    40    38   am
    25     3     4    2
    26     3     7   am
    27    38    39    2
    28    38    37    1
    29    53    54    1
    30    57    58    1
    31    57    54    1
    32     7     8    1
    33    54    55    1
    34    37    36    1
    35    12    11    1
    36    68    69    2
    37    68    67    1
    38    76    75   ar
    39    76    74   ar
    40    75    73   ar
    41    74    72   ar
    42     8    11    1
    43     8     9    1
    44    73    71   ar
    45    11    13    1
    46    36    30   am
    47    55    56    2
    48    55    59   am
    49    67    66    1
    50    67    70    1
    51    72    71   ar
    52    71    70    1
    53    59    60    1
    54     9    10    2
    55     9    14   am
    56    30    31    2
    57    30    29    1
    58    14    15    1
    59    29    32    1
    60    29    28    1
    61    60    61    1
    62    60    63    1
    63    62    61    2
    64    65    63    1
    65    32    33    1
    66    18    15    1
    67    18    19    1
    68    15    16    1
    69    63    64    1
    70    19    20   ar
    71    19    21   ar
    72    33    35    1
    73    33    34    1
    74    17    16    2
    75    24    21   ar
    76    24    26   ar
    77    20    22   ar
    78    21    23   ar
    79    26    27   ar
    80    22    23   ar
    81    23    25   ar
    82    27    25   ar
