@<TRIPOS>MOLECULE
tmp/1thqA01.pdb
 83 83 0 0 0
SMALL
GASTEIGER

@<TRIPOS>ATOM
      1  N         20.5940   60.1580    3.2750 N.3    11  TRP11      -0.1241
      2  CA        21.7700   59.9490    2.4260 C.3    11  TRP11       0.1605
      3  C         22.9050   60.8890    2.8430 C.2    11  TRP11       0.2264
      4  O         24.0330   60.4480    3.0580 O.2    11  TRP11      -0.2867
      5  CB        21.3530   60.1820    0.9770 C.3    11  TRP11       0.0550
      6  CG        22.3220   59.7680   -0.1100 C.ar   11  TRP11       0.0003
      7  CD1       23.4260   60.4560   -0.5570 C.ar   11  TRP11       0.0946
      8  CD2       22.2160   58.6080   -0.9330 C.ar   11  TRP11       0.0152
      9  NE1       24.0270   59.7700   -1.5880 N.ar   11  TRP11      -0.2442
     10  CE2       23.3000   58.6330   -1.8430 C.ar   11  TRP11       0.0810
     11  CE3       21.3160   57.5270   -0.9880 C.ar   11  TRP11       0.0012
     12  CZ2       23.5080   57.6210   -2.7900 C.ar   11  TRP11       0.0191
     13  CZ3       21.5310   56.5160   -1.9320 C.ar   11  TRP11       0.0001
     14  CH2       22.6170   56.5750   -2.8150 C.ar   11  TRP11       0.0015
     15  N         24.8460   54.0760   11.9270 N.3    17  TYR17      -0.1241
     16  CA        24.8390   52.9560   10.9910 C.3    17  TYR17       0.1605
     17  C         24.1930   51.7690   11.6670 C.2    17  TYR17       0.2264
     18  O         24.1180   51.7260   12.8960 O.2    17  TYR17      -0.2867
     19  CB        26.2300   52.6450   10.4200 C.3    17  TYR17       0.0534
     20  CG        27.2430   52.0130   11.3650 C.ar   17  TYR17      -0.0201
     21  CD1       27.2870   50.6130   11.5580 C.ar   17  TYR17      -0.0009
     22  CD2       28.1870   52.7930   12.0220 C.ar   17  TYR17      -0.0009
     23  CE1       28.2520   50.0310   12.4170 C.ar   17  TYR17       0.0417
     24  CE2       29.1490   52.2220   12.8680 C.ar   17  TYR17       0.0417
     25  CZ        29.1620   50.8410   13.0610 C.ar   17  TYR17       0.1957
     26  OH        30.1110   50.2830   13.9030 O.3    17  TYR17      -0.2866
     27  N         23.6180   46.0040    5.9840 N.3    39  PHE39      -0.1227
     28  CA        24.0550   47.1140    6.7880 C.3    39  PHE39       0.1736
     29  C         23.3960   48.3570    6.2060 C.2    39  PHE39       0.2596
     30  O         22.8880   48.3290    5.0860 O.2    39  PHE39      -0.2718
     31  CB        25.5740   47.2480    6.7860 C.3    39  PHE39       0.0547
     32  CG        26.1970   47.1470    5.4220 C.ar   39  PHE39      -0.0202
     33  CD1       26.3760   48.2870    4.6370 C.ar   39  PHE39      -0.0042
     34  CD2       26.6370   45.9190    4.9300 C.ar   39  PHE39      -0.0042
     35  CE1       26.9750   48.2080    3.3730 C.ar   39  PHE39      -0.0003
     36  CE2       27.2300   45.8250    3.6700 C.ar   39  PHE39      -0.0003
     37  CZ        27.3990   46.9750    2.8910 C.ar   39  PHE39      -0.0000
     38  N         23.4090   49.4460    6.9470 N.am   40  GLY40      -0.1942
     39  CA        22.7480   50.6410    6.4230 C.3    40  GLY40       0.2014
     40  C         23.0490   51.8680    7.2270 C.2    40  GLY40       0.2638
     41  O         23.8310   51.7870    8.1750 O.2    40  GLY40      -0.2714
     42  N         22.4630   52.9920    6.8010 N.am   41  LEU41      -0.1977
     43  CA        22.5930   54.2990    7.4470 C.3    41  LEU41       0.1596
     44  C         21.2030   54.6490    7.9400 C.2    41  LEU41       0.2287
     45  O         20.2200   54.2170    7.3510 O.2    41  LEU41      -0.2864
     46  CB        23.0420   55.3740    6.4350 C.3    41  LEU41       0.0297
     47  CG        24.3280   55.1160    5.6500 C.3    41  LEU41       0.0022
     48  CD1       24.4770   56.0590    4.4400 C.3    41  LEU41       0.0001
     49  CD2       25.5020   55.2700    6.6010 C.3    41  LEU41       0.0001
     50  N         18.5280   53.7790    5.1120 N.3    53  LEU53      -0.1231
     51  CA        18.9410   53.3760    3.7750 C.3    53  LEU53       0.1693
     52  C         19.7990   52.1370    3.9910 C.2    53  LEU53       0.2592
     53  O         20.7360   52.1780    4.8070 O.2    53  LEU53      -0.2718
     54  CB        19.7770   54.4710    3.0990 C.3    53  LEU53       0.0284
     55  CG        19.0450   55.7440    2.6330 C.3    53  LEU53       0.0019
     56  CD1       20.0780   56.8740    2.3760 C.3    53  LEU53       0.0001
     57  CD2       18.1970   55.4930    1.3770 C.3    53  LEU53       0.0001
     58  N         19.4810   51.0530    3.2870 N.am   54  TYR54      -0.1962
     59  CA        20.0710   49.7430    3.6030 C.3    54  TYR54       0.1771
     60  C         20.5300   49.0100    2.3490 C.2    54  TYR54       0.2619
     61  O         20.0540   49.2880    1.2230 O.2    54  TYR54      -0.2715
     62  CB        19.0370   48.8690    4.3740 C.3    54  TYR54       0.0574
     63  CG        17.7930   48.5870    3.5620 C.ar   54  TYR54      -0.0198
     64  CD1       17.7360   47.4820    2.7090 C.ar   54  TYR54      -0.0009
     65  CD2       16.6600   49.4190    3.6520 C.ar   54  TYR54      -0.0009
     66  CE1       16.6440   47.2430    1.9290 C.ar   54  TYR54       0.0417
     67  CE2       15.5420   49.1760    2.8850 C.ar   54  TYR54       0.0417
     68  CZ        15.5360   48.0760    2.0250 C.ar   54  TYR54       0.1957
     69  OH        14.4390   47.8000    1.2380 O.3    54  TYR54      -0.2866
     70  N         21.4530   48.0690    2.5410 N.am   55  ALA55      -0.1977
     71  CA        21.8410   47.1520    1.4720 C.3    55  ALA55       0.1597
     72  C         21.9380   45.7640    2.1080 C.2    55  ALA55       0.2287
     73  O         22.6420   45.5970    3.1050 O.2    55  ALA55      -0.2864
     74  CB        23.1710   47.5540    0.8780 C.3    55  ALA55       0.0319
     75  N         18.3130   46.6980   -2.0050 N.3    69  ALA69      -0.1231
     76  CA        18.7620   47.9320   -1.3920 C.3    69  ALA69       0.1697
     77  C         17.5910   48.8780   -1.4290 C.2    69  ALA69       0.2631
     78  O         16.7820   48.8290   -2.3600 O.2    69  ALA69      -0.2714
     79  CB        19.9520   48.5040   -2.1580 C.3    69  ALA69       0.0304
     80  N         17.5090   49.7640   -0.4500 N.am   70  GLY70      -0.1732
     81  CA        16.3600   50.6360   -0.4090 C.2    70  GLY70       0.1340
     82  C         16.3190   51.6400    0.7080 C.2    70  GLY70       0.2521
     83  O         17.3040   51.8500    1.4320 O.2    70  GLY70      -0.2816
@<TRIPOS>BOND
     1    14    12   ar
     2    14    13   ar
     3    12    10   ar
     4    78    77    2
     5    79    76    1
     6    75    76    1
     7    13    11   ar
     8    10     9   ar
     9    10     8   ar
    10     9     7   ar
    11    77    76    1
    12    77    80    1
    13    11     8   ar
    14     8     6   ar
    15     7     6   ar
    16    80    81    2
    17    81    82    1
    18     6     5    1
    19    82    83    2
    20    74    71    1
    21     5     2    1
    22    61    60    2
    23    69    68    1
    24    57    55    1
    25    71    72    1
    26    71    70    1
    27    66    68   ar
    28    66    64   ar
    29    68    67   ar
    30    72    73    2
    31    60    70   am
    32    60    59    1
    33    56    55    1
    34     2     3    1
    35     2     1    1
    36    55    54    1
    37    64    63   ar
    38     3     4    2
    39    67    65   ar
    40    37    35   ar
    41    37    36   ar
    42    54    51    1
    43    58    59    1
    44    58    52   am
    45    35    33   ar
    46    63    65   ar
    47    63    62    1
    48    59    62    1
    49    36    34   ar
    50    51    52    1
    51    51    50    1
    52    52    53    2
    53    48    47    1
    54    33    32   ar
    55    34    32   ar
    56    30    29    2
    57    32    31    1
    58    47    46    1
    59    47    49    1
    60    27    28    1
    61    29    28    1
    62    29    38   am
    63    39    38    1
    64    39    40    1
    65    46    43    1
    66    31    28    1
    67    42    40   am
    68    42    43    1
    69    40    41    2
    70    45    44    2
    71    43    44    1
    72    19    16    1
    73    19    20    1
    74    16    17    1
    75    16    15    1
    76    20    21   ar
    77    20    22   ar
    78    21    23   ar
    79    17    18    2
    80    22    24   ar
    81    23    25   ar
    82    24    25   ar
    83    25    26    1
