@<TRIPOS>MOLECULE
tmp/1ti1A00.pdb
 111 105 0 0 0
SMALL
GASTEIGER

@<TRIPOS>ATOM
      1  N          0.4940   20.5770   -0.6550 N.3    22  GLU22      -0.1245
      2  CA        -0.7760   21.0040   -0.1350 C.3    22  GLU22       0.1567
      3  C         -1.5150   21.7430   -1.2330 C.2    22  GLU22       0.2260
      4  O         -0.9010   22.4570   -2.0330 O.2    22  GLU22      -0.2867
      5  CB        -0.6200   21.9390    1.0410 C.3    22  GLU22       0.0388
      6  CG        -1.9720   22.2860    1.5720 C.3    22  GLU22       0.1160
      7  CD        -1.9330   23.1210    2.8050 C.2    22  GLU22       0.3649
      8  OE1       -0.8800   23.1210    3.4770 O.co2  22  GLU22      -0.2457
      9  OE2       -2.9700   23.7620    3.0970 O.co2  22  GLU22      -0.2457
     10  N         -7.0140   25.5390    9.0000 N.3    37  VAL37      -0.1245
     11  CA        -6.3590   24.6830    8.0230 C.3    37  VAL37       0.1561
     12  C         -4.9290   25.2010    7.9470 C.2    37  VAL37       0.2260
     13  O         -3.9700   24.4290    7.8510 O.2    37  VAL37      -0.2867
     14  CB        -7.0210   24.8080    6.6430 C.3    37  VAL37       0.0252
     15  CG1       -6.2160   24.0400    5.6030 C.3    37  VAL37       0.0019
     16  CG2       -8.4410   24.2750    6.6940 C.3    37  VAL37       0.0019
     17  N         -2.8620   23.9550   10.9910 N.3    40  ILE40      -0.1231
     18  CA        -2.4820   22.5820   10.6580 C.3    40  ILE40       0.1692
     19  C         -1.3370   22.6020    9.6440 C.2    40  ILE40       0.2592
     20  O         -0.3090   21.9640    9.8320 O.2    40  ILE40      -0.2718
     21  CB        -3.6780   21.7980   10.0100 C.3    40  ILE40       0.0266
     22  CG1       -4.7320   21.3990   11.0420 C.3    40  ILE40       0.0019
     23  CG2       -3.1830   20.5190    9.3790 C.3    40  ILE40       0.0020
     24  CD1       -5.2870   22.5200   11.8600 C.3    40  ILE40       0.0001
     25  N         -1.5400   23.3230    8.5510 N.am   41  SER41      -0.1952
     26  CA        -0.5350   23.4320    7.4980 C.3    41  SER41       0.1924
     27  C          0.8190   23.8050    8.0860 C.2    41  SER41       0.2314
     28  O          1.8470   23.2210    7.7280 O.2    41  SER41      -0.2863
     29  CB        -1.0010   24.4800    6.4750 C.3    41  SER41       0.2116
     30  OG         0.0400   24.9360    5.6470 O.3    41  SER41      -0.2180
     31  N          2.5600   20.9450   10.4450 N.3    44  VAL44      -0.1245
     32  CA         3.1280   19.8390    9.7020 C.3    44  VAL44       0.1561
     33  C          4.6130   20.1420    9.4140 C.2    44  VAL44       0.2260
     34  O          5.4320   19.2160    9.3330 O.2    44  VAL44      -0.2867
     35  CB         2.3260   19.5670    8.3980 C.3    44  VAL44       0.0252
     36  CG1        2.9880   18.4810    7.5690 C.3    44  VAL44       0.0019
     37  CG2        0.9370   19.1130    8.7710 C.3    44  VAL44       0.0019
     38  N         -9.3200   21.4320    1.1620 N.3   149  PRO149     -0.2102
     39  CA        -7.8660   21.2800    1.2110 C.3   149  PRO149      0.1504
     40  C         -7.4070   19.8430    0.9620 C.2   149  PRO149      0.2576
     41  O         -8.1420   18.8940    1.1850 O.2   149  PRO149     -0.2718
     42  CB        -7.5130   21.7650    2.6160 C.3   149  PRO149      0.0282
     43  CG        -8.7310   21.4420    3.3980 C.3   149  PRO149      0.0208
     44  CD        -9.8270   21.8830    2.4680 C.3   149  PRO149      0.0893
     45  N         -6.1790   19.6920    0.4980 N.am  150  ALA150     -0.1966
     46  CA        -5.6480   18.3770    0.2210 C.3   150  ALA150      0.1728
     47  C         -4.1450   18.3760    0.4050 C.2   150  ALA150      0.2616
     48  O         -3.4820   19.3970    0.1690 O.2   150  ALA150     -0.2715
     49  CB        -5.9950   17.9780   -1.2040 C.3   150  ALA150      0.0334
     50  N         -3.6130   17.2310    0.8250 N.am  151  MET151     -0.1977
     51  CA        -2.1800   17.0790    0.9840 C.3   151  MET151      0.1605
     52  C         -1.6930   15.7230    0.5130 C.2   151  MET151      0.2287
     53  O         -2.2260   14.6720    0.8830 O.2   151  MET151     -0.2864
     54  CB        -1.7310   17.2790    2.4210 C.3   151  MET151      0.0413
     55  CG        -0.2250   17.4950    2.4630 C.3   151  MET151      0.0598
     56  SD         0.4400   18.1180    3.9930 S.3   151  MET151     -0.1393
     57  CE        -0.8510   19.1310    4.4650 C.3   151  MET151      0.0692
     58  N         -7.6490   13.0560    6.6670 N.3   161  PRO161     -0.2102
     59  CA        -8.1720   13.6610    7.8890 C.3   161  PRO161      0.1504
     60  C         -9.3750   13.0610    8.6220 C.2   161  PRO161      0.2575
     61  O         -9.2680   12.7190    9.7930 O.2   161  PRO161     -0.2718
     62  CB        -8.4290   15.1120    7.4630 C.3   161  PRO161      0.0282
     63  CG        -8.5440   15.0360    5.9640 C.3   161  PRO161      0.0208
     64  CD        -7.4800   14.0760    5.6190 C.3   161  PRO161      0.0893
     65  N        -10.5040   12.9370    7.9300 N.am  162  GLN162     -0.1980
     66  CA       -11.7820   12.4670    8.4950 C.3   162  GLN162      0.1601
     67  C        -11.8910   11.0650    9.0900 C.2   162  GLN162      0.2287
     68  O        -12.9330   10.7140    9.6620 O.2   162  GLN162     -0.2864
     69  CB       -12.8760   12.6150    7.4540 C.3   162  GLN162      0.0394
     70  CG       -12.7930   11.5660    6.3610 C.3   162  GLN162      0.0908
     71  CD       -11.3910   11.4040    5.7940 C.2   162  GLN162      0.2608
     72  OE1      -10.4840   10.9300    6.4830 O.2   162  GLN162     -0.2717
     73  NE2      -11.2040   11.8120    4.5370 N.am  162  GLN162     -0.0878
     74  N        -10.7550   12.5190   15.6800 N.3   166  THR166     -0.1218
     75  CA       -11.9140   13.4060   15.5980 C.3   166  THR166      0.1862
     76  C        -11.9610   14.6360   16.5350 C.2   166  THR166      0.2287
     77  O        -11.4970   15.7230   16.1690 O.2   166  THR166     -0.2866
     78  CB       -13.2320   12.5920   15.7910 C.3   166  THR166      0.1770
     79  OG1      -13.6080   12.5740   17.1790 O.3   166  THR166     -0.2211
     80  CG2      -13.0380   11.1520   15.3160 C.3   166  THR166      0.0375
     81  N         -8.6010   19.1280   18.5230 N.3   169  MET169     -0.1245
     82  CA        -7.9980   19.6540   17.3070 C.3   169  MET169      0.1570
     83  C         -6.4980   19.5380   17.5140 C.2   169  MET169      0.2261
     84  O         -5.7480   19.2700   16.5720 O.2   169  MET169     -0.2867
     85  CB        -8.4070   21.1070   17.0650 C.3   169  MET169      0.0387
     86  CG        -8.6570   21.4630   15.5730 C.3   169  MET169      0.0595
     87  SD        -7.2160   21.5490   14.4280 S.3   169  MET169     -0.1393
     88  CE        -5.9880   22.2020   15.5120 C.3   169  MET169      0.0692
     89  N         -5.9020   16.1590   16.9940 N.3   172  PHE172     -0.1241
     90  CA        -5.9820   15.9910   15.5540 C.3   172  PHE172      0.1605
     91  C         -4.6470   16.3420   14.9290 C.2   172  PHE172      0.2264
     92  O         -4.0480   15.5210   14.2340 O.2   172  PHE172     -0.2867
     93  CB        -7.0730   16.8970   14.9750 C.3   172  PHE172      0.0534
     94  CG        -7.0350   17.0340   13.4670 C.ar  172  PHE172     -0.0203
     95  CD1       -8.2140   17.0000   12.7340 C.ar  172  PHE172     -0.0042
     96  CD2       -5.8350   17.2120   12.7840 C.ar  172  PHE172     -0.0042
     97  CE1       -8.1920   17.1360   11.3490 C.ar  172  PHE172     -0.0003
     98  CE2       -5.8010   17.3510   11.4070 C.ar  172  PHE172     -0.0003
     99  CZ        -6.9950   17.3120   10.6800 C.ar  172  PHE172     -0.0000
    100  N         -2.2370   14.1980   12.2420 N.3   176  TYR176     -0.1241
    101  CA        -2.0660   14.6190   10.8530 C.3   176  TYR176      0.1605
    102  C         -0.5810   14.9510   10.7050 C.2   176  TYR176      0.2264
    103  O          0.0560   14.6270    9.6930 O.2   176  TYR176     -0.2867
    104  CB        -2.9420   15.8410   10.5280 C.3   176  TYR176      0.0534
    105  CG        -3.0510   16.1430    9.0500 C.ar  176  TYR176     -0.0201
    106  CD1       -1.9130   16.3830    8.2860 C.ar  176  TYR176     -0.0009
    107  CD2       -4.2860   16.1790    8.4050 C.ar  176  TYR176     -0.0009
    108  CE1       -1.9970   16.6430    6.9230 C.ar  176  TYR176      0.0417
    109  CE2       -4.3700   16.4460    7.0280 C.ar  176  TYR176      0.0417
    110  CZ        -3.2180   16.6710    6.3060 C.ar  176  TYR176      0.1957
    111  OH        -3.2770   16.9100    4.9540 O.3   176  TYR176     -0.2866
@<TRIPOS>BOND
     1     4     3    2
     2     3     2    1
     3    49    46    1
     4     1     2    1
     5     2     5    1
     6    48    47    2
     7    46    47    1
     8    46    45    1
     9    47    50   am
    10    45    40   am
    11    52    53    2
    12    52    51    1
    13    50    51    1
    14    40    41    2
    15    40    39    1
    16    51    54    1
    17     5     6    1
    18    38    39    1
    19    38    44    1
    20    39    42    1
    21     6     7    1
    22    54    55    1
    23    55    56    1
    24    44    43    1
    25    42    43    1
    26     7     9   ar
    27     7     8   ar
    28    56    57    1
    29    73    71   am
    30   111   110    1
    31    15    14    1
    32    64    63    1
    33    64    58    1
    34    30    29    1
    35    71    70    1
    36    71    72    2
    37    63    62    1
    38   110   108   ar
    39   110   109   ar
    40    70    69    1
    41    29    26    1
    42    14    16    1
    43    14    11    1
    44    58    59    1
    45   108   106   ar
    46   109   107   ar
    47    69    66    1
    48    62    59    1
    49    26    27    1
    50    26    25    1
    51    36    35    1
    52    28    27    2
    53    13    12    2
    54    59    60    1
    55    65    66    1
    56    65    60   am
    57    12    11    1
    58    11    10    1
    59   106   105   ar
    60    35    37    1
    61    35    32    1
    62   107   105   ar
    63    66    67    1
    64    25    19   am
    65    60    61    2
    66   105   104    1
    67    67    68    2
    68    34    33    2
    69    23    21    1
    70    33    32    1
    71    19    20    2
    72    19    18    1
    73   103   102    2
    74    32    31    1
    75    21    18    1
    76    21    22    1
    77   104   101    1
    78    18    17    1
    79    99    97   ar
    80    99    98   ar
    81   102   101    1
    82   101   100    1
    83    22    24    1
    84    97    95   ar
    85    98    96   ar
    86    95    94   ar
    87    96    94   ar
    88    94    93    1
    89    92    91    2
    90    87    88    1
    91    87    86    1
    92    91    90    1
    93    93    90    1
    94    80    78    1
    95    90    89    1
    96    86    85    1
    97    75    74    1
    98    75    78    1
    99    75    76    1
   100    78    79    1
   101    77    76    2
   102    84    83    2
   103    85    82    1
   104    82    83    1
   105    82    81    1
