@<TRIPOS>MOLECULE
tmp/1tilA00.pdb
 182 175 0 0 0
SMALL
GASTEIGER

@<TRIPOS>ATOM
      1  N         75.0220    7.4390  109.3260 N.3    46  GLU46      -0.1245
      2  CA        74.3940    8.0410  108.1550 C.3    46  GLU46       0.1567
      3  C         73.4200    9.1660  108.4920 C.2    46  GLU46       0.2260
      4  O         73.4820   10.2440  107.9060 O.2    46  GLU46      -0.2867
      5  CB        73.6440    6.9810  107.3570 C.3    46  GLU46       0.0388
      6  CG        74.5250    5.9000  106.7810 C.3    46  GLU46       0.1160
      7  CD        75.6200    6.4700  105.9070 C.2    46  GLU46       0.3649
      8  OE1       75.4400    7.6090  105.4030 O.co2  46  GLU46      -0.2457
      9  OE2       76.6490    5.7750  105.7200 O.co2  46  GLU46      -0.2457
     10  N         75.2020   12.1870  110.3890 N.3    49  THR49      -0.1203
     11  CA        76.0160   12.9250  109.4310 C.3    49  THR49       0.1994
     12  C         75.1020   13.8030  108.5780 C.2    49  THR49       0.2618
     13  O         75.3340   15.0090  108.4520 O.2    49  THR49      -0.2717
     14  CB        76.8090   11.9750  108.5100 C.3    49  THR49       0.1784
     15  OG1       77.7130   11.1890  109.2960 O.3    49  THR49      -0.2211
     16  CG2       77.5910   12.7690  107.4740 C.3    49  THR49       0.0376
     17  N         74.0600   13.2010  108.0010 N.am   50  ASN50      -0.1960
     18  CA        73.1120   13.9530  107.1840 C.3    50  ASN50       0.1819
     19  C         72.6260   15.2060  107.9220 C.2    50  ASN50       0.2621
     20  O         72.6690   16.3080  107.3840 O.2    50  ASN50      -0.2715
     21  CB        71.8900   13.1040  106.8240 C.3    50  ASN50       0.1195
     22  CG        72.1700   12.0930  105.7370 C.2    50  ASN50       0.2630
     23  OD1       73.0090   12.3140  104.8660 O.2    50  ASN50      -0.2716
     24  ND2       71.4400   10.9830  105.7630 N.am   50  ASN50      -0.0877
     25  N         72.1710   15.0390  109.1570 N.am   51  ALA51      -0.1977
     26  CA        71.6720   16.1740  109.9150 C.3    51  ALA51       0.1597
     27  C         72.7210   17.2620  110.0430 C.2    51  ALA51       0.2287
     28  O         72.4080   18.4560  109.9710 O.2    51  ALA51      -0.2864
     29  CB        71.2090   15.7270  111.3020 C.3    51  ALA51       0.0319
     30  N         73.8820   18.2850  105.9890 N.3    54  HIS54      -0.1226
     31  CA        72.7730   18.7390  105.1540 C.3    54  HIS54       0.1752
     32  C         71.8060   19.5880  105.9610 C.2    54  HIS54       0.2596
     33  O         71.4790   20.7080  105.5730 O.2    54  HIS54      -0.2718
     34  CB        72.0340   17.5450  104.5560 C.3    54  HIS54       0.0759
     35  CG        72.8460   16.7690  103.5690 C.ar   54  HIS54       0.0818
     36  ND1       73.1310   17.2410  102.3060 N.ar   54  HIS54      -0.2268
     37  CD2       73.4550   15.5630  103.6660 C.ar   54  HIS54       0.1154
     38  CE1       73.8810   16.3590  101.6680 C.ar   54  HIS54       0.1986
     39  NE2       74.0920   15.3330  102.4710 N.ar   54  HIS54      -0.2212
     40  N         71.3630   19.0480  107.0920 N.am   55  GLY55      -0.1957
     41  CA        70.4260   19.7510  107.9440 C.3    55  GLY55       0.1869
     42  C         70.9320   21.1030  108.3900 C.2    55  GLY55       0.2309
     43  O         70.2440   22.1140  108.2470 O.2    55  GLY55      -0.2863
     44  N         66.4010   16.7690  113.4670 N.3    81  ASP81      -0.1239
     45  CA        67.0990   18.0520  113.4120 C.3    81  ASP81       0.1674
     46  C         66.0940   19.1400  113.0550 C.2    81  ASP81       0.2266
     47  O         65.1350   18.8890  112.3290 O.2    81  ASP81      -0.2867
     48  CB        68.2300   18.0270  112.3760 C.3    81  ASP81       0.1410
     49  CG        67.7180   17.9200  110.9460 C.2    81  ASP81       0.3668
     50  OD1       66.9940   18.8370  110.4970 O.co2  81  ASP81      -0.2456
     51  OD2       68.0400   16.9200  110.2620 O.co2  81  ASP81      -0.2456
     52  N         67.3580   22.6790  107.7690 N.3    84  VAL84      -0.1231
     53  CA        66.9290   23.0660  106.4320 C.3    84  VAL84       0.1692
     54  C         65.7600   22.2890  105.8060 C.2    84  VAL84       0.2593
     55  O         64.9380   22.8660  105.0910 O.2    84  VAL84      -0.2718
     56  CB        68.1640   23.0220  105.5060 C.3    84  VAL84       0.0266
     57  CG1       67.9500   22.0610  104.3520 C.3    84  VAL84       0.0020
     58  CG2       68.4890   24.4070  105.0470 C.3    84  VAL84       0.0020
     59  N         65.6950   20.9850  106.0510 N.am   85  GLY85      -0.1942
     60  CA        64.6040   20.2040  105.5010 C.3    85  GLY85       0.2014
     61  C         64.8830   19.5810  104.1510 C.2    85  GLY85       0.2639
     62  O         65.8700   19.8970  103.5010 O.2    85  GLY85      -0.2714
     63  N         63.9980   18.6880  103.7280 N.am   86  ILE86      -0.1963
     64  CA        64.1390   18.0010  102.4550 C.3    86  ILE86       0.1712
     65  C         62.9470   18.3470  101.5690 C.2    86  ILE86       0.2458
     66  O         61.8170   17.9570  101.8620 O.2    86  ILE86      -0.2730
     67  CB        64.1780   16.4760  102.6680 C.3    86  ILE86       0.0289
     68  CG1       65.3140   16.1200  103.6280 C.3    86  ILE86       0.0022
     69  CG2       64.3410   15.7610  101.3340 C.3    86  ILE86       0.0023
     70  CD1       65.4780   14.6290  103.8750 C.3    86  ILE86       0.0001
     71  N         63.1850   19.0810  100.4680 N.am   87  PRO87      -0.2727
     72  CA        62.1670   19.5120   99.5030 C.3    87  PRO87       0.1402
     73  C         61.3840   18.3620   98.8900 C.2    87  PRO87       0.2269
     74  O         60.1620   18.3290   98.9450 O.2    87  PRO87      -0.2865
     75  CB        62.9840   20.2500   98.4540 C.3    87  PRO87       0.0296
     76  CG        64.1570   20.7640   99.2190 C.3    87  PRO87       0.0237
     77  CD        64.5120   19.5750  100.0650 C.3    87  PRO87       0.0939
     78  N         65.2420   12.3750   97.0600 N.3    92  ALA92      -0.1245
     79  CA        66.4010   12.1700   97.9090 C.3    92  ALA92       0.1562
     80  C         66.6650   10.7210   98.3070 C.2    92  ALA92       0.2260
     81  O         67.7930   10.3810   98.6480 O.2    92  ALA92      -0.2867
     82  CB        66.2770   13.0390   99.1470 C.3    92  ALA92       0.0290
     83  N         71.5830    9.4620   94.6350 N.3    97  PHE97      -0.1227
     84  CA        71.1570   10.8440   94.5350 C.3    97  PHE97       0.1736
     85  C         71.7980   11.6550   95.6480 C.2    97  PHE97       0.2596
     86  O         71.9010   11.1800   96.7720 O.2    97  PHE97      -0.2718
     87  CB        69.6450   10.9730   94.6680 C.3    97  PHE97       0.0547
     88  CG        69.1820   12.3950   94.7630 C.ar   97  PHE97      -0.0202
     89  CD1       68.8170   13.0970   93.6260 C.ar   97  PHE97      -0.0042
     90  CD2       69.2020   13.0620   95.9840 C.ar   97  PHE97      -0.0042
     91  CE1       68.4830   14.4460   93.6980 C.ar   97  PHE97      -0.0003
     92  CE2       68.8720   14.4130   96.0690 C.ar   97  PHE97      -0.0003
     93  CZ        68.5130   15.1080   94.9220 C.ar   97  PHE97      -0.0000
     94  N         72.2070   12.8800   95.3350 N.am   98  THR98      -0.1939
     95  CA        72.8060   13.7890   96.3200 C.3    98  THR98       0.2028
     96  C         72.6990   15.2430   95.8760 C.2    98  THR98       0.2643
     97  O         72.5500   15.5350   94.7010 O.2    98  THR98      -0.2714
     98  CB        74.3050   13.5050   96.5700 C.3    98  THR98       0.1808
     99  OG1       74.8530   14.5540   97.3850 O.3    98  THR98      -0.2208
    100  CG2       75.0710   13.4540   95.2630 C.3    98  THR98       0.0379
    101  N         72.7890   16.1640   96.8180 N.am   99  THR99      -0.1936
    102  CA        72.6990   17.5630   96.4640 C.3    99  THR99       0.2028
    103  C         74.0300   18.2130   96.7610 C.2    99  THR99       0.2642
    104  O         74.1720   19.4260   96.6830 O.2    99  THR99      -0.2714
    105  CB        71.6060   18.2690   97.2660 C.3    99  THR99       0.1808
    106  OG1       72.0110   18.3660   98.6390 O.3    99  THR99      -0.2208
    107  CG2       70.2940   17.4910   97.1680 C.3    99  THR99       0.0379
    108  N         75.0120   17.4050   97.1270 N.am  100  LYS100     -0.1977
    109  CA        76.3270   17.9490   97.4000 C.3   100  LYS100      0.1596
    110  C         77.4300   17.0180   96.8910 C.2   100  LYS100      0.2287
    111  O         78.3090   16.6090   97.6480 O.2   100  LYS100     -0.2864
    112  CB        76.4820   18.2150   98.8950 C.3   100  LYS100      0.0298
    113  CG        75.3270   18.9960   99.4940 C.3   100  LYS100      0.0038
    114  CD        75.7170   19.6360  100.8190 C.3   100  LYS100      0.0206
    115  CE        74.5340   19.7140  101.7980 C.3   100  LYS100      0.1093
    116  NZ        73.2670   20.2870  101.2510 N.3   100  LYS100     -0.1314
    117  N         80.1080   13.4150   98.2290 N.3   105  ARG105     -0.1231
    118  CA        79.0120   12.7250   98.8710 C.3   105  ARG105      0.1694
    119  C         78.5940   11.6460   97.8650 C.2   105  ARG105      0.2593
    120  O         78.3980   11.9350   96.6920 O.2   105  ARG105     -0.2718
    121  CB        77.8840   13.7120   99.1480 C.3   105  ARG105      0.0321
    122  CG        77.6240   13.9870  100.6290 C.3   105  ARG105      0.0489
    123  CD        78.8240   14.5370  101.4030 C.3   105  ARG105      0.2205
    124  NE        79.5450   13.5270  102.1910 N.pl3 105  ARG105     -0.0865
    125  CZ        78.9900   12.6730  103.0590 C.cat 105  ARG105      0.5346
    126  NH1       77.6800   12.6700  103.2790 N.pl3 105  ARG105      0.1354
    127  NH2       79.7520   11.8130  103.7250 N.pl3 105  ARG105      0.1354
    128  N         78.4750   10.4030   98.3110 N.am  106  SER106     -0.1938
    129  CA        78.1160    9.3070   97.4110 C.3   106  SER106      0.2055
    130  C         76.6280    9.0990   97.1060 C.2   106  SER106      0.2644
    131  O         76.2950    8.4380   96.1280 O.2   106  SER106     -0.2714
    132  CB        78.6850    7.9900   97.9460 C.3   106  SER106      0.2130
    133  OG        77.9070    7.5090   99.0310 O.3   106  SER106     -0.2179
    134  N         75.7340    9.6350   97.9290 N.am  107  GLY107     -0.1939
    135  CA        74.3120    9.4500   97.6790 C.3   107  GLY107      0.2014
    136  C         73.8230    8.0680   98.0940 C.2   107  GLY107      0.2639
    137  O         72.7540    7.6160   97.6680 O.2   107  GLY107     -0.2714
    138  N         74.6140    7.4020   98.9350 N.am  108  MET108     -0.1963
    139  CA        74.2990    6.0680   99.4370 C.3   108  MET108      0.1736
    140  C         73.6580    6.0250  100.8320 C.2   108  MET108      0.2617
    141  O         73.1560    4.9840  101.2660 O.2   108  MET108     -0.2715
    142  CB        75.5700    5.2260   99.4530 C.3   108  MET108      0.0427
    143  CG        75.9570    4.7380   98.1080 C.3   108  MET108      0.0599
    144  SD        74.5190    3.9520   97.3900 S.3   108  MET108     -0.1393
    145  CE        74.3640    2.4820   98.4200 C.3   108  MET108      0.0692
    146  N         73.6900    7.1530  101.5340 N.am  109  GLY109     -0.1940
    147  CA        73.1260    7.2230  102.8700 C.3   109  GLY109      0.2014
    148  C         71.7870    6.5280  103.0720 C.2   109  GLY109      0.2638
    149  O         71.7020    5.5040  103.7600 O.2   109  GLY109     -0.2714
    150  N         70.7370    7.0880  102.4790 N.am  110  PHE110     -0.1973
    151  CA        69.3980    6.5320  102.6150 C.3   110  PHE110      0.1639
    152  C         69.3190    5.0920  102.1860 C.2   110  PHE110      0.2290
    153  O         68.6740    4.2910  102.8420 O.2   110  PHE110     -0.2864
    154  CB        68.3920    7.3670  101.8300 C.3   110  PHE110      0.0560
    155  CG        67.9320    8.5930  102.5630 C.ar  110  PHE110     -0.0200
    156  CD1       67.9340    9.8360  101.9430 C.ar  110  PHE110     -0.0042
    157  CD2       67.4870    8.5020  103.8830 C.ar  110  PHE110     -0.0042
    158  CE1       67.5030   10.9780  102.6230 C.ar  110  PHE110     -0.0003
    159  CE2       67.0490    9.6310  104.5770 C.ar  110  PHE110     -0.0003
    160  CZ        67.0580   10.8740  103.9440 C.ar  110  PHE110     -0.0000
    161  N         71.4780    2.9290  102.4550 N.3   112  ILE112     -0.1245
    162  CA        72.0640    2.1190  103.5130 C.3   112  ILE112      0.1561
    163  C         71.0470    2.0240  104.6500 C.2   112  ILE112      0.2260
    164  O         70.7910    0.9450  105.1740 O.2   112  ILE112     -0.2867
    165  CB        73.3880    2.7280  104.0230 C.3   112  ILE112      0.0252
    166  CG1       74.4180    2.7260  102.8900 C.3   112  ILE112      0.0019
    167  CG2       73.9200    1.9250  105.2110 C.3   112  ILE112      0.0019
    168  CD1       75.7460    3.3540  103.2650 C.3   112  ILE112      0.0001
    169  N         64.0640   17.8490  109.7910 N.3   130  THR130     -0.1218
    170  CA        63.9230   16.5080  109.2480 C.3   130  THR130      0.1862
    171  C         63.9200   15.5070  110.3890 C.2   130  THR130      0.2287
    172  O         64.6360   15.6890  111.3780 O.2   130  THR130     -0.2866
    173  CB        65.0800   16.1740  108.3010 C.3   130  THR130      0.1770
    174  OG1       65.1460   17.1620  107.2700 O.3   130  THR130     -0.2211
    175  CG2       64.8700   14.8160  107.6640 C.3   130  THR130      0.0375
    176  N         63.9940   11.2050  110.9790 N.3   132  VAL132     -0.1245
    177  CA        64.1120    9.8690  110.4060 C.3   132  VAL132      0.1561
    178  C         63.8000    8.7970  111.4360 C.2   132  VAL132      0.2260
    179  O         64.4970    8.6790  112.4420 O.2   132  VAL132     -0.2867
    180  CB        65.5430    9.6140  109.8590 C.3   132  VAL132      0.0252
    181  CG1       65.6290    8.2210  109.2340 C.3   132  VAL132      0.0019
    182  CG2       65.9160   10.6810  108.8420 C.3   132  VAL132      0.0019
@<TRIPOS>BOND
     1    89    91   ar
     2    89    88   ar
     3    91    93   ar
     4    84    83    1
     5    84    87    1
     6    84    85    1
     7    87    88    1
     8    97    96    2
     9    88    90   ar
    10    93    92   ar
    11   100    98    1
    12    94    85   am
    13    94    95    1
    14    85    86    2
    15    96    95    1
    16    96   101   am
    17    90    92   ar
    18   131   130    2
    19    95    98    1
    20   102   103    1
    21   102   101    1
    22   102   105    1
    23    98    99    1
    24   104   103    2
    25   120   119    2
    26   103   108   am
    27   110   109    1
    28   110   111    2
    29    78    79    1
    30   130   129    1
    31   130   134   am
    32   108   109    1
    33   107   105    1
    34   105   106    1
    35   144   143    1
    36   144   145    1
    37   109   112    1
    38   129   132    1
    39   129   128    1
    40   137   136    2
    41   135   134    1
    42   135   136    1
    43   119   128   am
    44   119   118    1
    45    79    80    1
    46    79    82    1
    47   132   133    1
    48   136   138   am
    49   143   142    1
    50   117   118    1
    51    80    81    2
    52    75    76    1
    53    75    72    1
    54   118   121    1
    55    73    74    2
    56    73    72    1
    57   112   113    1
    58   138   139    1
    59   121   122    1
    60    76    77    1
    61   139   142    1
    62   139   140    1
    63   113   114    1
    64    72    71    1
    65    77    71    1
    66    71    65   am
    67   122   123    1
    68   114   115    1
    69   140   141    2
    70   140   146   am
    71   116   115    1
    72    69    67    1
    73   123   124    1
    74   146   147    1
    75    65    66    2
    76    65    64    1
    77    38    36   ar
    78    38    39   ar
    79   154   155    1
    80   154   151    1
    81   156   155   ar
    82   156   158   ar
    83   152   151    1
    84   152   153    2
    85   124   125    2
    86    36    35   ar
    87    64    67    1
    88    64    63    1
    89   161   162    1
    90    39    37   ar
    91   150   151    1
    92   150   148   am
    93   155   157   ar
    94   158   160   ar
    95    67    68    1
    96   147   148    1
    97   166   168    1
    98   166   165    1
    99   125   126    1
   100   125   127    1
   101   148   149    2
   102    62    61    2
   103   162   165    1
   104   162   163    1
   105    35    37   ar
   106    35    34    1
   107    68    70    1
   108    63    61   am
   109   157   159   ar
   110   160   159   ar
   111   165   167    1
   112    61    60    1
   113    57    56    1
   114    34    31    1
   115   163   164    2
   116    23    22    2
   117    58    56    1
   118    55    54    2
   119    31    32    1
   120    31    30    1
   121     8     7   ar
   122    60    59    1
   123    56    53    1
   124    33    32    2
   125     9     7   ar
   126    22    24   am
   127    22    21    1
   128    54    59   am
   129    54    53    1
   130     7     6    1
   131    32    40   am
   132    53    52    1
   133     6     5    1
   134    21    18    1
   135    40    41    1
   136    18    19    1
   137    18    17    1
   138   174   173    1
   139     5     2    1
   140    20    19    2
   141    16    14    1
   142   175   173    1
   143     4     3    2
   144    19    25   am
   145    41    42    1
   146    17    12   am
   147     2     3    1
   148     2     1    1
   149    43    42    2
   150   173   170    1
   151    13    12    2
   152    14    15    1
   153    14    11    1
   154    12    11    1
   155   182   180    1
   156    25    26    1
   157   181   180    1
   158   170   169    1
   159   170   171    1
   160    11    10    1
   161   180   177    1
   162    26    27    1
   163    26    29    1
   164    28    27    2
   165    51    49   ar
   166   171   172    2
   167   177   176    1
   168   177   178    1
   169    50    49   ar
   170    49    48    1
   171   178   179    2
   172    47    46    2
   173    48    45    1
   174    46    45    1
   175    45    44    1
