@<TRIPOS>MOLECULE
tmp/1tiqA01.pdb
 169 167 0 0 0
SMALL
GASTEIGER

@<TRIPOS>ATOM
      1  N          5.1440   62.0340   51.4830 N.3    22  PHE22      -0.1241
      2  CA         4.3560   63.2610   51.4240 C.3    22  PHE22       0.1605
      3  C          3.0850   63.1210   52.2540 C.2    22  PHE22       0.2264
      4  O          2.7230   64.0240   53.0100 O.2    22  PHE22      -0.2867
      5  CB         3.9790   63.6160   49.9850 C.3    22  PHE22       0.0534
      6  CG         3.3080   64.9540   49.8560 C.ar   22  PHE22      -0.0203
      7  CD1        1.9400   65.0920   50.0720 C.ar   22  PHE22      -0.0042
      8  CD2        4.0560   66.0870   49.5660 C.ar   22  PHE22      -0.0042
      9  CE1        1.3330   66.3430   50.0010 C.ar   22  PHE22      -0.0003
     10  CE2        3.4570   67.3410   49.4920 C.ar   22  PHE22      -0.0003
     11  CZ         2.0960   67.4700   49.7100 C.ar   22  PHE22      -0.0000
     12  N          1.7970   65.8300   55.3860 N.3    26  PHE26      -0.1241
     13  CA         0.7030   66.7990   55.3530 C.3    26  PHE26       0.1605
     14  C         -0.6640   66.1730   55.6320 C.2    26  PHE26       0.2264
     15  O         -1.6960   66.8350   55.4900 O.2    26  PHE26      -0.2867
     16  CB         0.6430   67.4930   53.9900 C.3    26  PHE26       0.0534
     17  CG         1.8930   68.2390   53.6280 C.ar   26  PHE26      -0.0203
     18  CD1        2.9950   67.5680   53.1040 C.ar   26  PHE26      -0.0042
     19  CD2        1.9660   69.6170   53.8010 C.ar   26  PHE26      -0.0042
     20  CE1        4.1550   68.2630   52.7550 C.ar   26  PHE26      -0.0003
     21  CE2        3.1170   70.3210   53.4570 C.ar   26  PHE26      -0.0003
     22  CZ         4.2140   69.6440   52.9320 C.ar   26  PHE26      -0.0000
     23  N         -4.4100   65.7830   45.3290 N.3    37  TYR37      -0.1241
     24  CA        -3.0480   66.2660   45.1400 C.3    37  TYR37       0.1605
     25  C         -2.0750   65.1350   44.8030 C.2    37  TYR37       0.2264
     26  O         -1.2540   65.2580   43.8920 O.2    37  TYR37      -0.2867
     27  CB        -2.5630   67.0050   46.3930 C.3    37  TYR37       0.0534
     28  CG        -1.1120   67.4150   46.2960 C.ar   37  TYR37      -0.0201
     29  CD1       -0.1000   66.5770   46.7570 C.ar   37  TYR37      -0.0009
     30  CD2       -0.7480   68.6060   45.6700 C.ar   37  TYR37      -0.0009
     31  CE1        1.2380   66.9110   46.5960 C.ar   37  TYR37       0.0417
     32  CE2        0.5890   68.9500   45.5020 C.ar   37  TYR37       0.0417
     33  CZ         1.5760   68.0970   45.9670 C.ar   37  TYR37       0.1957
     34  OH         2.9000   68.4280   45.7960 O.3    37  TYR37      -0.2866
     35  N          0.1830   65.2670   41.5900 N.3    41  ALA41      -0.1245
     36  CA         1.6000   65.5290   41.7870 C.3    41  ALA41       0.1562
     37  C          2.4860   64.3190   41.5430 C.2    41  ALA41       0.2260
     38  O          3.6030   64.4480   41.0390 O.2    41  ALA41      -0.2867
     39  CB         1.8340   66.0480   43.1950 C.3    41  ALA41       0.0290
     40  N         10.9020   76.1250   41.5030 N.3    79  SER79      -0.1217
     41  CA         9.4850   76.4370   41.7360 C.3    79  SER79       0.1889
     42  C          9.2060   77.9310   41.8860 C.2    79  SER79       0.2288
     43  O          8.0530   78.3600   41.9630 O.2    79  SER79      -0.2866
     44  CB         8.9560   75.6810   42.9640 C.3    79  SER79       0.2089
     45  OG         9.5890   76.1040   44.1580 O.3    79  SER79      -0.2183
     46  N         16.1780   73.1670   46.6760 N.3    88  ILE88      -0.1231
     47  CA        15.9480   71.8350   47.2170 C.3    88  ILE88       0.1692
     48  C         14.4240   71.8890   47.2630 C.2    88  ILE88       0.2592
     49  O         13.8510   72.4830   48.1750 O.2    88  ILE88      -0.2718
     50  CB        16.4930   71.6670   48.6680 C.3    88  ILE88       0.0266
     51  CG1       18.0170   71.7780   48.6770 C.3    88  ILE88       0.0019
     52  CG2       16.0770   70.2960   49.2290 C.3    88  ILE88       0.0020
     53  CD1       18.6030   71.8640   50.0740 C.3    88  ILE88       0.0001
     54  N         13.7720   71.3100   46.2590 N.am   89  GLU89      -0.1966
     55  CA        12.3180   71.3430   46.1860 C.3    89  GLU89       0.1733
     56  C         11.6650   70.3210   47.1010 C.2    89  GLU89       0.2616
     57  O         10.6450   70.6050   47.7390 O.2    89  GLU89      -0.2715
     58  CB        11.8430   71.0970   44.7490 C.3    89  GLU89       0.0429
     59  CG        10.3710   71.4640   44.5540 C.3    89  GLU89       0.1163
     60  CD         9.7680   70.9410   43.2640 C.2    89  GLU89       0.3649
     61  OE1       10.5020   70.7880   42.2680 O.co2  89  GLU89      -0.2457
     62  OE2        8.5430   70.6930   43.2460 O.co2  89  GLU89      -0.2457
     63  N         12.2600   69.1320   47.1560 N.am   90  ARG90      -0.1963
     64  CA        11.7560   68.0410   47.9790 C.3    90  ARG90       0.1729
     65  C         12.8950   67.3230   48.6840 C.2    90  ARG90       0.2616
     66  O         13.9570   67.1170   48.1070 O.2    90  ARG90      -0.2715
     67  CB        10.9880   67.0360   47.1060 C.3    90  ARG90       0.0348
     68  CG         9.7520   67.6360   46.4420 C.3    90  ARG90       0.0492
     69  CD         9.0930   66.7010   45.4340 C.3    90  ARG90       0.2205
     70  NE         8.2910   67.4810   44.4930 N.pl3  90  ARG90      -0.0865
     71  CZ         7.9400   67.0720   43.2790 C.cat  90  ARG90       0.5346
     72  NH1        8.3150   65.8780   42.8470 N.pl3  90  ARG90       0.1354
     73  NH2        7.2260   67.8680   42.4900 N.pl3  90  ARG90       0.1354
     74  N         12.6750   66.9730   49.9450 N.am   91  ILE91      -0.1963
     75  CA        13.6620   66.2330   50.7170 C.3    91  ILE91       0.1727
     76  C         12.8660   65.4770   51.7720 C.2    91  ILE91       0.2616
     77  O         12.1810   66.0610   52.6190 O.2    91  ILE91      -0.2715
     78  CB        14.7690   67.1590   51.3320 C.3    91  ILE91       0.0290
     79  CG1       15.7670   66.3000   52.1180 C.3    91  ILE91       0.0022
     80  CG2       14.1450   68.2660   52.1780 C.3    91  ILE91       0.0023
     81  CD1       17.0310   67.0420   52.5570 C.3    91  ILE91       0.0001
     82  N         12.9350   64.1530   51.6820 N.am   92  TYR92      -0.1974
     83  CA        12.1660   63.2940   52.5670 C.3    92  TYR92       0.1639
     84  C         12.8890   62.0500   53.0240 C.2    92  TYR92       0.2290
     85  O         13.5210   61.3720   52.2250 O.2    92  TYR92      -0.2864
     86  CB        10.9050   62.8290   51.8430 C.3    92  TYR92       0.0560
     87  CG         9.8810   63.9040   51.5950 C.ar   92  TYR92      -0.0198
     88  CD1        8.8660   64.1450   52.5190 C.ar   92  TYR92      -0.0009
     89  CD2        9.9140   64.6710   50.4290 C.ar   92  TYR92      -0.0009
     90  CE1        7.9050   65.1160   52.2880 C.ar   92  TYR92       0.0417
     91  CE2        8.9610   65.6470   50.1900 C.ar   92  TYR92       0.0417
     92  CZ         7.9550   65.8630   51.1270 C.ar   92  TYR92       0.1957
     93  OH         7.0070   66.8170   50.8810 O.3    92  TYR92      -0.2866
     94  N         11.7250   76.2900   50.1470 N.3   125  GLY125     -0.1210
     95  CA        10.5240   76.8290   50.7370 C.3   125  GLY125      0.1956
     96  C         10.0690   75.7910   51.7480 C.2   125  GLY125      0.2612
     97  O         10.1370   74.5900   51.4640 O.2   125  GLY125     -0.2717
     98  N          9.6420   76.2310   52.9310 N.am  126  VAL126     -0.1965
     99  CA         9.1650   75.2980   53.9570 C.3   126  VAL126      0.1727
    100  C          7.9910   75.8430   54.7600 C.2   126  VAL126      0.2616
    101  O          8.0230   76.9660   55.2580 O.2   126  VAL126     -0.2715
    102  CB        10.2940   74.8510   54.9380 C.3   126  VAL126      0.0290
    103  CG1       10.8600   76.0310   55.7100 C.3   126  VAL126      0.0023
    104  CG2        9.7400   73.7990   55.9030 C.3   126  VAL126      0.0023
    105  N          6.9390   75.0350   54.8560 N.am  127  TRP127     -0.1974
    106  CA         5.7310   75.4000   55.5970 C.3   127  TRP127      0.1640
    107  C          6.1050   75.8150   57.0180 C.2   127  TRP127      0.2290
    108  O          6.7770   75.0710   57.7360 O.2   127  TRP127     -0.2864
    109  CB         4.7850   74.2000   55.6020 C.3   127  TRP127      0.0576
    110  CG         3.4830   74.3950   56.2940 C.ar  127  TRP127      0.0006
    111  CD1        2.8110   75.5770   56.5000 C.ar  127  TRP127      0.0946
    112  CD2        2.6400   73.3600   56.8000 C.ar  127  TRP127      0.0152
    113  NE1        1.5970   75.3280   57.0960 N.ar  127  TRP127     -0.2442
    114  CE2        1.4640   73.9760   57.2840 C.ar  127  TRP127      0.0810
    115  CE3        2.7570   71.9630   56.8730 C.ar  127  TRP127      0.0012
    116  CZ2        0.4170   73.2470   57.8540 C.ar  127  TRP127      0.0191
    117  CZ3        1.7130   71.2350   57.4390 C.ar  127  TRP127      0.0001
    118  CH2        0.5540   71.8830   57.9150 C.ar  127  TRP127      0.0015
    119  N          6.0110   73.3470   59.8760 N.3   130  ASN130     -0.1240
    120  CA         6.9320   72.2180   59.9070 C.3   130  ASN130      0.1653
    121  C          8.1640   72.5830   60.7440 C.2   130  ASN130      0.2266
    122  O          9.2520   72.8200   60.2150 O.2   130  ASN130     -0.2867
    123  CB         7.3220   71.8340   58.4710 C.3   130  ASN130      0.1155
    124  CG         7.9070   70.4310   58.3720 C.2   130  ASN130      0.2627
    125  OD1        7.9840   69.8570   57.2790 O.2   130  ASN130     -0.2716
    126  ND2        8.3240   69.8770   59.5020 N.am  130  ASN130     -0.0877
    127  N         16.9770   72.5270   58.9420 N.3   137  TYR137     -0.1241
    128  CA        17.6030   73.4630   58.0050 C.3   137  TYR137      0.1605
    129  C         18.5030   74.4900   58.7040 C.2   137  TYR137      0.2264
    130  O         19.5980   74.7910   58.2230 O.2   137  TYR137     -0.2867
    131  CB        16.5400   74.1980   57.1760 C.3   137  TYR137      0.0534
    132  CG        15.6430   73.3060   56.3330 C.ar  137  TYR137     -0.0201
    133  CD1       16.1640   72.2280   55.6120 C.ar  137  TYR137     -0.0009
    134  CD2       14.2750   73.5690   56.2250 C.ar  137  TYR137     -0.0009
    135  CE1       15.3420   71.4320   54.8030 C.ar  137  TYR137      0.0417
    136  CE2       13.4430   72.7800   55.4160 C.ar  137  TYR137      0.0417
    137  CZ        13.9910   71.7160   54.7100 C.ar  137  TYR137      0.1957
    138  OH        13.1900   70.9340   53.9060 O.3   137  TYR137     -0.2866
    139  N          0.5580   81.1290   51.0810 N.3   149  PHE149     -0.1227
    140  CA         0.2230   80.2130   49.9940 C.3   149  PHE149      0.1736
    141  C         -1.0320   79.4550   50.4070 C.2   149  PHE149      0.2595
    142  O         -1.3210   79.3360   51.5960 O.2   149  PHE149     -0.2718
    143  CB         1.3640   79.2210   49.7040 C.3   149  PHE149      0.0547
    144  CG         1.5490   78.1650   50.7570 C.ar  149  PHE149     -0.0202
    145  CD1        2.2100   78.4570   51.9440 C.ar  149  PHE149     -0.0042
    146  CD2        1.0460   76.8770   50.5660 C.ar  149  PHE149     -0.0042
    147  CE1        2.3690   77.4880   52.9280 C.ar  149  PHE149     -0.0003
    148  CE2        1.2000   75.9010   51.5490 C.ar  149  PHE149     -0.0003
    149  CZ         1.8610   76.2080   52.7310 C.ar  149  PHE149     -0.0000
    150  N         -1.7780   78.9530   49.4280 N.am  150  TYR150     -0.1976
    151  CA        -3.0060   78.2170   49.7080 C.3   150  TYR150      0.1639
    152  C         -2.7950   76.7140   49.8660 C.2   150  TYR150      0.2290
    153  O         -2.2740   76.0530   48.9670 O.2   150  TYR150     -0.2864
    154  CB        -4.0360   78.4550   48.5950 C.3   150  TYR150      0.0560
    155  CG        -4.8880   79.6880   48.7850 C.ar  150  TYR150     -0.0198
    156  CD1       -5.9360   79.7000   49.7110 C.ar  150  TYR150     -0.0009
    157  CD2       -4.6500   80.8420   48.0390 C.ar  150  TYR150     -0.0009
    158  CE1       -6.7290   80.8370   49.8870 C.ar  150  TYR150      0.0417
    159  CE2       -5.4320   81.9830   48.2060 C.ar  150  TYR150      0.0417
    160  CZ        -6.4690   81.9740   49.1280 C.ar  150  TYR150      0.1957
    161  OH        -7.2480   83.1020   49.2790 O.3   150  TYR150     -0.2866
    162  N          4.6470   80.1310   53.9740 N.3   157  ASP157     -0.1239
    163  CA         5.7960   79.4300   53.4210 C.3   157  ASP157      0.1674
    164  C          7.0290   80.2580   53.7800 C.2   157  ASP157      0.2266
    165  O          7.0840   81.4380   53.4550 O.2   157  ASP157     -0.2867
    166  CB         5.6480   79.3560   51.8970 C.3   157  ASP157      0.1410
    167  CG         6.7510   78.5560   51.2350 C.2   157  ASP157      0.3668
    168  OD1        6.8490   78.6000   49.9890 O.co2 157  ASP157     -0.2456
    169  OD2        7.5140   77.8780   51.9520 O.co2 157  ASP157     -0.2456
@<TRIPOS>BOND
     1    38    37    2
     2    40    41    1
     3    37    36    1
     4    35    36    1
     5    41    42    1
     6    41    44    1
     7    36    39    1
     8    42    43    2
     9    61    60   ar
    10    73    71    1
    11    72    71    1
    12    44    45    1
    13    62    60   ar
    14    60    59    1
    15    71    70    2
    16    26    25    2
    17    70    69    1
    18    59    58    1
    19    58    55    1
    20    25    24    1
    21    24    23    1
    22    24    27    1
    23    69    68    1
    24    32    30   ar
    25    32    33   ar
    26    30    28   ar
    27    34    33    1
    28    33    31   ar
    29    55    54    1
    30    55    56    1
    31    54    48   am
    32    28    27    1
    33    28    29   ar
    34    68    67    1
    35    31    29   ar
    36    46    47    1
    37    56    63   am
    38    56    57    2
    39    67    64    1
    40    63    64    1
    41    47    48    1
    42    47    50    1
    43    48    49    2
    44    64    65    1
    45   157   159   ar
    46   157   155   ar
    47    66    65    2
    48   159   160   ar
    49   154   155    1
    50   154   151    1
    51    50    51    1
    52    50    52    1
    53    51    53    1
    54    65    74   am
    55   155   156   ar
    56   153   152    2
    57   160   161    1
    58   160   158   ar
    59   150   151    1
    60   150   141   am
    61    10     8   ar
    62    10    11   ar
    63     8     6   ar
    64   143   140    1
    65   143   144    1
    66   151   152    1
    67    11     9   ar
    68   156   158   ar
    69     6     5    1
    70     6     7   ar
    71    74    75    1
    72     5     2    1
    73   168   167   ar
    74   140   141    1
    75   140   139    1
    76     9     7   ar
    77    94    95    1
    78    91    89   ar
    79    91    92   ar
    80   141   142    2
    81    89    87   ar
    82   146   144   ar
    83   146   148   ar
    84    75    78    1
    85    75    76    1
    86    95    96    1
    87   144   145   ar
    88    93    92    1
    89    92    90   ar
    90   167   166    1
    91   167   169   ar
    92    78    79    1
    93    78    80    1
    94     2     1    1
    95     2     3    1
    96    97    96    2
    97   148   149   ar
    98    87    86    1
    99    87    88   ar
   100    82    76   am
   101    82    83    1
   102    96    98   am
   103    76    77    2
   104    86    83    1
   105   166   163    1
   106   145   147   ar
   107    79    81    1
   108    85    84    2
   109     3     4    2
   110    90    88   ar
   111    83    84    1
   112   149   147   ar
   113    20    22   ar
   114    20    18   ar
   115    98    99    1
   116    22    21   ar
   117    18    17   ar
   118   163   164    1
   119   163   162    1
   120   165   164    2
   121    21    19   ar
   122    17    19   ar
   123    17    16    1
   124   138   137    1
   125    99   100    1
   126    99   102    1
   127    16    13    1
   128   137   135   ar
   129   137   136   ar
   130   100   105   am
   131   100   101    2
   132   135   133   ar
   133   105   106    1
   134   102   103    1
   135   102   104    1
   136    13    12    1
   137    13    14    1
   138   136   134   ar
   139    15    14    2
   140   106   109    1
   141   106   107    1
   142   109   110    1
   143   133   132   ar
   144   134   132   ar
   145   110   111   ar
   146   110   112   ar
   147   132   131    1
   148   111   113   ar
   149   112   115   ar
   150   112   114   ar
   151   115   117   ar
   152   107   108    2
   153   113   114   ar
   154   131   128    1
   155   125   124    2
   156   114   116   ar
   157   117   118   ar
   158   116   118   ar
   159   128   129    1
   160   128   127    1
   161   130   129    2
   162   124   123    1
   163   124   126   am
   164   123   120    1
   165   119   120    1
   166   120   121    1
   167   122   121    2
