@<TRIPOS>MOLECULE
tmp/1tiqA00.pdb
 184 181 0 0 0
SMALL
GASTEIGER

@<TRIPOS>ATOM
      1  N          3.4430   63.5600   55.8040 N.3    25  THR25      -0.1203
      2  CA         3.9140   64.8840   56.1890 C.3    25  THR25       0.1994
      3  C          2.8080   65.9480   56.2450 C.2    25  THR25       0.2617
      4  O          2.8800   66.8630   57.0610 O.2    25  THR25      -0.2717
      5  CB         5.0440   65.3650   55.2390 C.3    25  THR25       0.1784
      6  OG1        6.1470   64.4490   55.3100 O.3    25  THR25      -0.2211
      7  CG2        5.5290   66.7550   55.6310 C.3    25  THR25       0.0376
      8  N          1.7970   65.8300   55.3860 N.am   26  PHE26      -0.1975
      9  CA         0.7030   66.7990   55.3530 C.3    26  PHE26       0.1639
     10  C         -0.6640   66.1730   55.6320 C.2    26  PHE26       0.2290
     11  O         -1.6960   66.8350   55.4900 O.2    26  PHE26      -0.2864
     12  CB         0.6430   67.4930   53.9900 C.3    26  PHE26       0.0560
     13  CG         1.8930   68.2390   53.6280 C.ar   26  PHE26      -0.0200
     14  CD1        2.9950   67.5680   53.1040 C.ar   26  PHE26      -0.0042
     15  CD2        1.9660   69.6170   53.8010 C.ar   26  PHE26      -0.0042
     16  CE1        4.1550   68.2630   52.7550 C.ar   26  PHE26      -0.0003
     17  CE2        3.1170   70.3210   53.4570 C.ar   26  PHE26      -0.0003
     18  CZ         4.2140   69.6440   52.9320 C.ar   26  PHE26      -0.0000
     19  N         13.7720   71.3100   46.2590 N.3    89  GLU89      -0.1245
     20  CA        12.3180   71.3430   46.1860 C.3    89  GLU89       0.1567
     21  C         11.6650   70.3210   47.1010 C.2    89  GLU89       0.2260
     22  O         10.6450   70.6050   47.7390 O.2    89  GLU89      -0.2867
     23  CB        11.8430   71.0970   44.7490 C.3    89  GLU89       0.0388
     24  CG        10.3710   71.4640   44.5540 C.3    89  GLU89       0.1160
     25  CD         9.7680   70.9410   43.2640 C.2    89  GLU89       0.3649
     26  OE1       10.5020   70.7880   42.2680 O.co2  89  GLU89      -0.2457
     27  OE2        8.5430   70.6930   43.2460 O.co2  89  GLU89      -0.2457
     28  N         12.6750   66.9730   49.9450 N.3    91  ILE91      -0.1231
     29  CA        13.6620   66.2330   50.7170 C.3    91  ILE91       0.1692
     30  C         12.8660   65.4770   51.7720 C.2    91  ILE91       0.2592
     31  O         12.1810   66.0610   52.6190 O.2    91  ILE91      -0.2718
     32  CB        14.7690   67.1590   51.3320 C.3    91  ILE91       0.0266
     33  CG1       15.7670   66.3000   52.1180 C.3    91  ILE91       0.0019
     34  CG2       14.1450   68.2660   52.1780 C.3    91  ILE91       0.0020
     35  CD1       17.0310   67.0420   52.5570 C.3    91  ILE91       0.0001
     36  N         12.9350   64.1530   51.6820 N.am   92  TYR92      -0.1962
     37  CA        12.1660   63.2940   52.5670 C.3    92  TYR92       0.1771
     38  C         12.8890   62.0500   53.0240 C.2    92  TYR92       0.2619
     39  O         13.5210   61.3720   52.2250 O.2    92  TYR92      -0.2715
     40  CB        10.9050   62.8290   51.8430 C.3    92  TYR92       0.0574
     41  CG         9.8810   63.9040   51.5950 C.ar   92  TYR92      -0.0198
     42  CD1        8.8660   64.1450   52.5190 C.ar   92  TYR92      -0.0009
     43  CD2        9.9140   64.6710   50.4290 C.ar   92  TYR92      -0.0009
     44  CE1        7.9050   65.1160   52.2880 C.ar   92  TYR92       0.0417
     45  CE2        8.9610   65.6470   50.1900 C.ar   92  TYR92       0.0417
     46  CZ         7.9550   65.8630   51.1270 C.ar   92  TYR92       0.1957
     47  OH         7.0070   66.8170   50.8810 O.3    92  TYR92      -0.2866
     48  N         12.7700   61.7460   54.3110 N.am   93  ILE93      -0.1977
     49  CA        13.3510   60.5380   54.8650 C.3    93  ILE93       0.1596
     50  C         12.1720   59.7990   55.4900 C.2    93  ILE93       0.2287
     51  O         11.3370   60.4070   56.1670 O.2    93  ILE93      -0.2864
     52  CB        14.4060   60.8270   55.9530 C.3    93  ILE93       0.0276
     53  CG1       15.5910   61.5940   55.3540 C.3    93  ILE93       0.0022
     54  CG2       14.8910   59.5030   56.5630 C.3    93  ILE93       0.0022
     55  CD1       16.4460   60.7700   54.3930 C.3    93  ILE93       0.0001
     56  N         13.5450   55.8460   59.2990 N.3    97  PHE97      -0.1227
     57  CA        14.9640   56.0990   59.0200 C.3    97  PHE97       0.1736
     58  C         15.4360   57.4930   59.4460 C.2    97  PHE97       0.2595
     59  O         16.6020   57.8400   59.2500 O.2    97  PHE97      -0.2718
     60  CB        15.2820   55.9110   57.5330 C.3    97  PHE97       0.0547
     61  CG        15.1890   54.4870   57.0580 C.ar   97  PHE97      -0.0202
     62  CD1       13.9980   53.9840   56.5510 C.ar   97  PHE97      -0.0042
     63  CD2       16.3010   53.6540   57.1010 C.ar   97  PHE97      -0.0042
     64  CE1       13.9130   52.6660   56.0860 C.ar   97  PHE97      -0.0003
     65  CE2       16.2310   52.3330   56.6400 C.ar   97  PHE97      -0.0003
     66  CZ        15.0340   51.8430   56.1320 C.ar   97  PHE97      -0.0000
     67  N         14.5390   58.2810   60.0310 N.am   98  GLN98      -0.1965
     68  CA        14.8830   59.6330   60.4760 C.3    98  GLN98       0.1733
     69  C         15.7960   59.6080   61.7060 C.2    98  GLN98       0.2616
     70  O         15.9020   58.5880   62.3890 O.2    98  GLN98      -0.2715
     71  CB        13.6060   60.4260   60.7850 C.3    98  GLN98       0.0408
     72  CG        12.8130   60.8520   59.5480 C.3    98  GLN98       0.0908
     73  CD        11.4620   61.4600   59.8880 C.2    98  GLN98       0.2608
     74  OE1       11.2230   61.8680   61.0240 O.2    98  GLN98      -0.2717
     75  NE2       10.5720   61.5330   58.8960 N.am   98  GLN98      -0.0878
     76  N         16.4550   60.7350   61.9690 N.am   99  LYS99      -0.1963
     77  CA        17.3590   60.8920   63.1170 C.3    99  LYS99       0.1728
     78  C         18.6050   60.0100   63.0600 C.2    99  LYS99       0.2616
     79  O         19.1200   59.5920   64.0990 O.2    99  LYS99      -0.2715
     80  CB        16.6030   60.6050   64.4220 C.3    99  LYS99       0.0311
     81  CG        15.2260   61.2300   64.4940 C.3    99  LYS99       0.0038
     82  CD        15.2700   62.7430   64.3860 C.3    99  LYS99       0.0206
     83  CE        13.8500   63.3050   64.4070 C.3    99  LYS99       0.1093
     84  NZ        13.8260   64.7910   64.4070 N.3    99  LYS99      -0.1314
     85  N         19.0880   59.7320   61.8520 N.am  100  HIS100     -0.1959
     86  CA        20.2800   58.9080   61.6710 C.3   100  HIS100      0.1787
     87  C         21.2890   59.5460   60.7270 C.2   100  HIS100      0.2621
     88  O         22.2010   58.8760   60.2400 O.2   100  HIS100     -0.2715
     89  CB        19.9000   57.5230   61.1440 C.3   100  HIS100      0.0785
     90  CG        19.1300   56.7060   62.1280 C.ar  100  HIS100      0.0821
     91  ND1       17.7780   56.4630   62.0040 N.ar  100  HIS100     -0.2267
     92  CD2       19.5070   56.1350   63.2960 C.ar  100  HIS100      0.1154
     93  CE1       17.3560   55.7810   63.0530 C.ar  100  HIS100      0.1986
     94  NE2       18.3860   55.5690   63.8530 N.ar  100  HIS100     -0.2212
     95  N         21.1190   60.8370   60.4650 N.am  101  GLY101     -0.1940
     96  CA        22.0390   61.5330   59.5890 C.3   101  GLY101      0.2014
     97  C         21.7520   61.4270   58.1010 C.2   101  GLY101      0.2639
     98  O         22.5160   61.9580   57.2950 O.2   101  GLY101     -0.2714
     99  N         20.6630   60.7630   57.7170 N.am  102  LEU102     -0.1963
    100  CA        20.3440   60.6200   56.2930 C.3   102  LEU102      0.1728
    101  C         19.8440   61.9200   55.6540 C.2   102  LEU102      0.2617
    102  O         20.1210   62.1830   54.4810 O.2   102  LEU102     -0.2715
    103  CB        19.3260   59.4910   56.0840 C.3   102  LEU102      0.0311
    104  CG        19.7300   58.1080   56.6290 C.3   102  LEU102      0.0022
    105  CD1       18.6170   57.0990   56.3560 C.3   102  LEU102      0.0001
    106  CD2       21.0230   57.6460   55.9800 C.3   102  LEU102      0.0001
    107  N         19.1120   62.7290   56.4130 N.am  103  GLY103     -0.1940
    108  CA        18.6370   63.9960   55.8810 C.3   103  GLY103      0.2014
    109  C         19.8410   64.8780   55.6010 C.2   103  GLY103      0.2638
    110  O         19.9080   65.5440   54.5700 O.2   103  GLY103     -0.2714
    111  N         20.8010   64.8710   56.5250 N.am  104  LYS104     -0.1977
    112  CA        22.0220   65.6610   56.3740 C.3   104  LYS104      0.1596
    113  C         22.7490   65.2460   55.0980 C.2   104  LYS104      0.2287
    114  O         23.2230   66.0980   54.3470 O.2   104  LYS104     -0.2864
    115  CB        22.9550   65.4740   57.5820 C.3   104  LYS104      0.0298
    116  CG        24.2710   66.2580   57.4360 C.3   104  LYS104      0.0038
    117  CD        25.0050   66.4680   58.7490 C.3   104  LYS104      0.0206
    118  CE        25.4940   65.1710   59.3440 C.3   104  LYS104      0.1093
    119  NZ        26.2290   65.4360   60.6290 N.3   104  LYS104     -0.1314
    120  N          9.6420   76.2310   52.9310 N.3   126  VAL126     -0.1245
    121  CA         9.1650   75.2980   53.9570 C.3   126  VAL126      0.1561
    122  C          7.9910   75.8430   54.7600 C.2   126  VAL126      0.2260
    123  O          8.0230   76.9660   55.2580 O.2   126  VAL126     -0.2867
    124  CB        10.2940   74.8510   54.9380 C.3   126  VAL126      0.0252
    125  CG1       10.8600   76.0310   55.7100 C.3   126  VAL126      0.0019
    126  CG2        9.7400   73.7990   55.9030 C.3   126  VAL126      0.0019
    127  N          6.0110   73.3470   59.8760 N.3   130  ASN130     -0.1240
    128  CA         6.9320   72.2180   59.9070 C.3   130  ASN130      0.1653
    129  C          8.1640   72.5830   60.7440 C.2   130  ASN130      0.2266
    130  O          9.2520   72.8200   60.2150 O.2   130  ASN130     -0.2867
    131  CB         7.3220   71.8340   58.4710 C.3   130  ASN130      0.1155
    132  CG         7.9070   70.4310   58.3720 C.2   130  ASN130      0.2627
    133  OD1        7.9840   69.8570   57.2790 O.2   130  ASN130     -0.2716
    134  ND2        8.3240   69.8770   59.5020 N.am  130  ASN130     -0.0877
    135  N          9.9950   70.7500   62.7320 N.3   132  ASN132     -0.1225
    136  CA        11.0910   69.7870   62.6510 C.3   132  ASN132      0.1785
    137  C         11.9980   70.1230   61.4720 C.2   132  ASN132      0.2597
    138  O         13.2240   70.1630   61.6090 O.2   132  ASN132     -0.2718
    139  CB        10.5490   68.3580   62.4960 C.3   132  ASN132      0.1169
    140  CG        11.6630   67.3130   62.3720 C.2   132  ASN132      0.2627
    141  OD1       12.4140   67.0560   63.3220 O.2   132  ASN132     -0.2716
    142  ND2       11.7670   66.7050   61.1960 N.am  132  ASN132     -0.0877
    143  N         11.4090   70.3740   60.3080 N.am  133  ALA133     -0.1979
    144  CA        12.2290   70.6850   59.1350 C.3   133  ALA133      0.1597
    145  C         12.9590   72.0210   59.2590 C.2   133  ALA133      0.2287
    146  O         14.1050   72.1480   58.8210 O.2   133  ALA133     -0.2864
    147  CB        11.3770   70.6670   57.8770 C.3   133  ALA133      0.0319
    148  N         14.0060   73.4870   62.0070 N.3   135  ALA135     -0.1231
    149  CA        15.1090   73.2890   62.9430 C.3   135  ALA135      0.1694
    150  C         16.2730   72.5680   62.2620 C.2   135  ALA135      0.2592
    151  O         17.4330   72.8920   62.5020 O.2   135  ALA135     -0.2718
    152  CB        14.6210   72.4790   64.1540 C.3   135  ALA135      0.0304
    153  N         15.9510   71.5820   61.4300 N.am  136  PHE136     -0.1962
    154  CA        16.9630   70.8280   60.6900 C.3   136  PHE136      0.1771
    155  C         17.7160   71.7760   59.7530 C.2   136  PHE136      0.2619
    156  O         18.9480   71.8410   59.7820 O.2   136  PHE136     -0.2715
    157  CB        16.2880   69.6980   59.9000 C.3   136  PHE136      0.0574
    158  CG        17.1430   69.1040   58.8020 C.ar  136  PHE136     -0.0200
    159  CD1       16.8080   69.3020   57.4690 C.ar  136  PHE136     -0.0042
    160  CD2       18.2620   68.3320   59.1000 C.ar  136  PHE136     -0.0042
    161  CE1       17.5660   68.7430   56.4380 C.ar  136  PHE136     -0.0003
    162  CE2       19.0360   67.7610   58.0760 C.ar  136  PHE136     -0.0003
    163  CZ        18.6820   67.9700   56.7460 C.ar  136  PHE136     -0.0000
    164  N         16.9770   72.5270   58.9420 N.am  137  TYR137     -0.1974
    165  CA        17.6030   73.4630   58.0050 C.3   137  TYR137      0.1639
    166  C         18.5030   74.4900   58.7040 C.2   137  TYR137      0.2290
    167  O         19.5980   74.7910   58.2230 O.2   137  TYR137     -0.2864
    168  CB        16.5400   74.1980   57.1760 C.3   137  TYR137      0.0560
    169  CG        15.6430   73.3060   56.3330 C.ar  137  TYR137     -0.0198
    170  CD1       16.1640   72.2280   55.6120 C.ar  137  TYR137     -0.0009
    171  CD2       14.2750   73.5690   56.2250 C.ar  137  TYR137     -0.0009
    172  CE1       15.3420   71.4320   54.8030 C.ar  137  TYR137      0.0417
    173  CE2       13.4430   72.7800   55.4160 C.ar  137  TYR137      0.0417
    174  CZ        13.9910   71.7160   54.7100 C.ar  137  TYR137      0.1957
    175  OH        13.1900   70.9340   53.9060 O.3   137  TYR137     -0.2866
    176  N         20.0570   74.1380   61.4680 N.3   139  LYS139     -0.1245
    177  CA        21.2420   73.4310   61.9370 C.3   139  LYS139      0.1561
    178  C         22.1930   73.2740   60.7480 C.2   139  LYS139      0.2260
    179  O         23.4140   73.3470   60.9040 O.2   139  LYS139     -0.2867
    180  CB        20.8490   72.0540   62.4940 C.3   139  LYS139      0.0271
    181  CG        21.9400   71.3550   63.3110 C.3   139  LYS139      0.0035
    182  CD        22.2530   72.1090   64.5910 C.3   139  LYS139      0.0206
    183  CE        23.3770   71.4310   65.3780 C.3   139  LYS139      0.1093
    184  NZ        23.1840   69.9510   65.5000 N.3   139  LYS139     -0.1314
@<TRIPOS>BOND
     1    26    25   ar
     2    27    25   ar
     3    25    24    1
     4    24    23    1
     5    23    20    1
     6    20    19    1
     7    20    21    1
     8    21    22    2
     9    28    29    1
    10    45    43   ar
    11    45    46   ar
    12    43    41   ar
    13    29    32    1
    14    29    30    1
    15    47    46    1
    16    46    44   ar
    17    32    33    1
    18    32    34    1
    19    41    40    1
    20    41    42   ar
    21    36    30   am
    22    36    37    1
    23    30    31    2
    24    40    37    1
    25    33    35    1
    26    39    38    2
    27    44    42   ar
    28    37    38    1
    29    16    18   ar
    30    16    14   ar
    31   120   121    1
    32    18    17   ar
    33    38    48   am
    34    14    13   ar
    35    17    15   ar
    36    13    15   ar
    37    13    12    1
    38   175   174    1
    39   121   122    1
    40   121   124    1
    41    12     9    1
    42    48    49    1
    43   114   113    2
    44    55    53    1
    45   102   101    2
    46   110   109    2
    47   174   172   ar
    48   174   173   ar
    49   122   123    2
    50   172   170   ar
    51    49    50    1
    52    49    52    1
    53   124   125    1
    54   124   126    1
    55   113   112    1
    56     5     6    1
    57     5     7    1
    58     5     2    1
    59     9     8    1
    60     9    10    1
    61    53    52    1
    62     8     3   am
    63   173   171   ar
    64    50    51    2
    65    11    10    2
    66   109   108    1
    67   109   111   am
    68   170   169   ar
    69   101   100    1
    70   101   107   am
    71     1     2    1
    72   108   107    1
    73    52    54    1
    74   106   104    1
    75   103   100    1
    76   103   104    1
    77    64    66   ar
    78    64    62   ar
    79    66    65   ar
    80     2     3    1
    81   171   169   ar
    82     3     4    2
    83   100    99    1
    84   169   168    1
    85   105   104    1
    86   112   111    1
    87   112   115    1
    88   161   163   ar
    89   161   159   ar
    90    62    61   ar
    91    65    63   ar
    92   163   162   ar
    93    61    63   ar
    94    61    60    1
    95   168   165    1
    96   133   132    2
    97    98    97    2
    98   116   115    1
    99   116   117    1
   100   159   158   ar
   101    60    57    1
   102    99    97   am
   103   147   144    1
   104   165   166    1
   105   165   164    1
   106   162   160   ar
   107    97    96    1
   108   167   166    2
   109   132   131    1
   110   132   134   am
   111   131   128    1
   112   117   118    1
   113   158   160   ar
   114   158   157    1
   115   146   145    2
   116    75    73   am
   117   164   155   am
   118    57    56    1
   119    57    58    1
   120   144   145    1
   121   144   143    1
   122    59    58    2
   123   118   119    1
   124    58    67   am
   125    72    73    1
   126    72    71    1
   127    96    95    1
   128   155   156    2
   129   155   154    1
   130   127   128    1
   131    73    74    2
   132   157   154    1
   133   128   129    1
   134    67    68    1
   135   130   129    2
   136    88    87    2
   137   143   137   am
   138    95    87   am
   139    68    71    1
   140    68    69    1
   141   154   153    1
   142    87    86    1
   143   178   179    2
   144   178   177    1
   145    89    86    1
   146    89    90    1
   147   142   140   am
   148   153   150   am
   149   176   177    1
   150   137   138    2
   151   137   136    1
   152    86    85    1
   153    69    76   am
   154    69    70    2
   155    85    78   am
   156   177   180    1
   157    76    77    1
   158    91    90   ar
   159    91    93   ar
   160   148   149    1
   161    90    92   ar
   162   150   151    2
   163   150   149    1
   164   140   139    1
   165   140   141    2
   166   180   181    1
   167   139   136    1
   168   136   135    1
   169   149   152    1
   170    93    94   ar
   171    78    77    1
   172    78    79    2
   173    77    80    1
   174    92    94   ar
   175   181   182    1
   176    82    83    1
   177    82    81    1
   178    84    83    1
   179    80    81    1
   180   182   183    1
   181   183   184    1
