@<TRIPOS>MOLECULE
tmp/1tj5A00.pdb
 148 135 0 0 0
SMALL
GASTEIGER

@<TRIPOS>ATOM
      1  N         51.7530   10.2240  100.5610 N.3     9  ASP9       -0.1239
      2  CA        50.8460    9.1740  100.1650 C.3     9  ASP9        0.1674
      3  C         49.9230    9.0470  101.3660 C.2     9  ASP9        0.2266
      4  O         50.2580    9.5310  102.4470 O.2     9  ASP9       -0.2867
      5  CB        51.6040    7.8760   99.9570 C.3     9  ASP9        0.1410
      6  CG        50.7520    6.8180   99.3260 C.2     9  ASP9        0.3668
      7  OD1       49.5710    7.0920   99.0720 O.co2   9  ASP9       -0.2456
      8  OD2       51.2660    5.7050   99.0840 O.co2   9  ASP9       -0.2456
      9  N         47.4590    5.8440  102.3790 N.3    11  ASP11      -0.1225
     10  CA        47.5170    4.5140  102.9830 C.3    11  ASP11       0.1805
     11  C         48.9250    4.0800  103.3790 C.2    11  ASP11       0.2597
     12  O         49.8480    4.1520  102.5760 O.2    11  ASP11      -0.2718
     13  CB        46.9220    3.4630  102.0360 C.3    11  ASP11       0.1424
     14  CG        45.4970    3.7800  101.6340 C.2    11  ASP11       0.3668
     15  OD1       45.2960    4.5250  100.6530 O.co2  11  ASP11      -0.2456
     16  OD2       44.5720    3.2920  102.3090 O.co2  11  ASP11      -0.2456
     17  N         49.0750    3.6420  104.6280 N.am   12  ASN12      -0.1974
     18  CA        50.3500    3.1630  105.1600 C.3    12  ASN12       0.1688
     19  C         51.4190    4.2340  105.3370 C.2    12  ASN12       0.2292
     20  O         52.5390    3.9350  105.7470 O.2    12  ASN12      -0.2864
     21  CB        50.9000    2.0400  104.2750 C.3    12  ASN12       0.1181
     22  CG        49.8970    0.9240  104.0690 C.2    12  ASN12       0.2629
     23  OD1       49.3900    0.3500  105.0300 O.2    12  ASN12      -0.2716
     24  ND2       49.6010    0.6130  102.8110 N.am   12  ASN12      -0.0877
     25  N         47.2790    6.4710   95.4500 N.3    42  GLY42      -0.1210
     26  CA        46.9670    5.5600   94.3660 C.3    42  GLY42       0.1956
     27  C         45.4630    5.4720   94.2220 C.2    42  GLY42       0.2611
     28  O         44.9470    4.9860   93.2180 O.2    42  GLY42      -0.2717
     29  N         44.7550    5.9520   95.2370 N.am   43  ARG43      -0.1979
     30  CA        43.3020    5.9360   95.2360 C.3    43  ARG43       0.1597
     31  C         42.7090    6.9550   94.2700 C.2    43  ARG43       0.2287
     32  O         43.3280    7.9700   93.9540 O.2    43  ARG43      -0.2864
     33  CB        42.7670    6.2490   96.6350 C.3    43  ARG43       0.0334
     34  CG        43.1300    5.2450   97.7190 C.3    43  ARG43       0.0492
     35  CD        42.3250    5.5410   98.9780 C.3    43  ARG43       0.2205
     36  NE        42.5910    4.6040  100.0630 N.pl3  43  ARG43      -0.0865
     37  CZ        41.6520    4.1280  100.8730 C.cat  43  ARG43       0.5346
     38  NH1       40.3880    4.4950  100.7130 N.pl3  43  ARG43       0.1354
     39  NH2       41.9770    3.3010  101.8540 N.pl3  43  ARG43       0.1354
     40  N         37.5480    7.7320   96.2350 N.3    47  SER47      -0.1217
     41  CA        38.0570    6.8570   97.2790 C.3    47  SER47       0.1889
     42  C         38.8790    7.6590   98.2910 C.2    47  SER47       0.2288
     43  O         38.8110    7.4140   99.4950 O.2    47  SER47      -0.2866
     44  CB        38.9140    5.7460   96.6670 C.3    47  SER47       0.2089
     45  OG        39.3010    4.8050   97.6540 O.3    47  SER47      -0.2183
     46  N         47.6390    7.7370   91.4390 N.3    67  VAL67      -0.1245
     47  CA        49.0640    7.7450   91.1360 C.3    67  VAL67       0.1561
     48  C         49.4630    8.9370   90.2650 C.2    67  VAL67       0.2260
     49  O         50.3710    8.8420   89.4360 O.2    67  VAL67      -0.2867
     50  CB        49.4880    6.4310   90.4230 C.3    67  VAL67       0.0252
     51  CG1       50.9840    6.2100   90.5960 C.3    67  VAL67       0.0019
     52  CG2       48.7150    5.2500   90.9940 C.3    67  VAL67       0.0019
     53  N         41.8410   -5.0400   87.7830 N.3   107  GLN107     -0.1245
     54  CA        41.3790   -4.5520   89.0720 C.3   107  GLN107      0.1566
     55  C         39.9760   -4.0470   88.7730 C.2   107  GLN107      0.2260
     56  O         39.6340   -3.8310   87.6080 O.2   107  GLN107     -0.2867
     57  CB        42.2620   -3.4100   89.5820 C.3   107  GLN107      0.0367
     58  CG        43.5210   -3.8800   90.2980 C.3   107  GLN107      0.0905
     59  CD        44.2970   -2.7380   90.9260 C.2   107  GLN107      0.2608
     60  OE1       43.7140   -1.7530   91.3830 O.2   107  GLN107     -0.2717
     61  NE2       45.6160   -2.8700   90.9680 N.am  107  GLN107     -0.0878
     62  N         38.7280    1.3460   89.7860 N.3   111  GLU111     -0.1245
     63  CA        40.1500    1.6080   90.0110 C.3   111  GLU111      0.1567
     64  C         40.7730    2.1160   88.7140 C.2   111  GLU111      0.2260
     65  O         41.9110    2.5800   88.7000 O.2   111  GLU111     -0.2867
     66  CB        40.8740    0.3300   90.4420 C.3   111  GLU111      0.0388
     67  CG        40.5220   -0.1450   91.8360 C.3   111  GLU111      0.1160
     68  CD        40.9120    0.8520   92.9050 C.2   111  GLU111      0.3649
     69  OE1       41.4740    1.9100   92.5510 O.co2 111  GLU111     -0.2457
     70  OE2       40.6490    0.5850   94.0970 O.co2 111  GLU111     -0.2457
     71  N         44.8580    5.3650   83.4610 N.3   116  LYS116     -0.1245
     72  CA        45.3010    4.3580   84.4190 C.3   116  LYS116      0.1561
     73  C         44.6720    2.9970   84.1490 C.2   116  LYS116      0.2260
     74  O         43.4510    2.8510   84.1280 O.2   116  LYS116     -0.2867
     75  CB        44.9700    4.8200   85.8430 C.3   116  LYS116      0.0271
     76  CG        45.3550    3.8490   86.9500 C.3   116  LYS116      0.0035
     77  CD        45.1250    4.4860   88.3170 C.3   116  LYS116      0.0206
     78  CE        45.3950    3.5220   89.4540 C.3   116  LYS116      0.1093
     79  NZ        44.4110    2.4130   89.5130 N.3   116  LYS116     -0.1314
     80  N         46.0420   -6.9630   89.1030 N.3   120  HIS120     -0.1241
     81  CA        46.5130   -7.6270   90.3050 C.3   120  HIS120      0.1621
     82  C         47.3730   -8.7810   89.7980 C.2   120  HIS120      0.2264
     83  O         46.9540   -9.5330   88.9140 O.2   120  HIS120     -0.2867
     84  CB        45.3300   -8.1630   91.1180 C.3   120  HIS120      0.0745
     85  CG        44.6820   -7.1390   92.0000 C.ar  120  HIS120      0.0817
     86  ND1       43.3660   -7.2280   92.4030 N.ar  120  HIS120     -0.2268
     87  CD2       45.1800   -6.0260   92.5920 C.ar  120  HIS120      0.1154
     88  CE1       43.0820   -6.2160   93.2040 C.ar  120  HIS120      0.1986
     89  NE2       44.1660   -5.4710   93.3350 N.ar  120  HIS120     -0.2212
     90  N         53.7720   -2.3990   92.9280 N.3   149  SER149     -0.1202
     91  CA        53.8790   -2.1450   94.3610 C.3   149  SER149      0.2020
     92  C         53.2150   -3.1890   95.2520 C.2   149  SER149      0.2619
     93  O         52.2470   -3.8410   94.8590 O.2   149  SER149     -0.2717
     94  CB        53.3050   -0.7620   94.6840 C.3   149  SER149      0.2103
     95  OG        51.9370   -0.6850   94.3350 O.3   149  SER149     -0.2182
     96  N         53.7560   -3.3390   96.4580 N.am  150  SER150     -0.1951
     97  CA        53.2380   -4.2870   97.4370 C.3   150  SER150      0.1924
     98  C         53.2940   -5.7210   96.9190 C.2   150  SER150      0.2314
     99  O         52.6220   -6.6110   97.4410 O.2   150  SER150     -0.2863
    100  CB        51.8010   -3.9200   97.8070 C.3   150  SER150      0.2116
    101  OG        51.7220   -2.5730   98.2440 O.3   150  SER150     -0.2180
    102  N         52.0140   -6.9460   94.3800 N.3   152  LYS152     -0.1231
    103  CA        50.8080   -7.4320   93.7110 C.3   152  LYS152      0.1693
    104  C         50.0500   -6.4290   92.8290 C.2   152  LYS152      0.2592
    105  O         49.3010   -6.8350   91.9430 O.2   152  LYS152     -0.2718
    106  CB        49.8410   -8.0050   94.7510 C.3   152  LYS152      0.0285
    107  CG        49.1030   -6.9430   95.5390 C.3   152  LYS152      0.0035
    108  CD        48.0250   -7.5460   96.4260 C.3   152  LYS152      0.0206
    109  CE        46.8710   -6.5630   96.6360 C.3   152  LYS152      0.1093
    110  NZ        47.3010   -5.2520   97.2170 N.3   152  LYS152     -0.1314
    111  N         50.2300   -5.1320   93.0660 N.am  153  ASP153     -0.1974
    112  CA        49.5190   -4.1190   92.2820 C.3   153  ASP153      0.1709
    113  C         50.2960   -3.6080   91.0780 C.2   153  ASP153      0.2293
    114  O         51.4450   -3.1900   91.2020 O.2   153  ASP153     -0.2864
    115  CB        49.1280   -2.9320   93.1670 C.3   153  ASP153      0.1436
    116  CG        48.1210   -3.3110   94.2410 C.2   153  ASP153      0.3671
    117  OD1       47.2710   -4.1900   93.9770 O.co2 153  ASP153     -0.2456
    118  OD2       48.1680   -2.7220   95.3430 O.co2 153  ASP153     -0.2456
    119  N         50.1090   -0.9250   87.8010 N.3   155  ASP155     -0.1239
    120  CA        49.4410    0.2050   87.1740 C.3   155  ASP155      0.1674
    121  C         50.1520    0.5750   85.8800 C.2   155  ASP155      0.2266
    122  O         51.3810    0.6430   85.8340 O.2   155  ASP155     -0.2867
    123  CB        49.4460    1.4270   88.0980 C.3   155  ASP155      0.1410
    124  CG        48.7280    1.1760   89.4100 C.2   155  ASP155      0.3668
    125  OD1       47.5340    1.5250   89.4930 O.co2 155  ASP155     -0.2456
    126  OD2       49.3480    0.6250   90.3470 O.co2 155  ASP155     -0.2456
    127  N         55.6740    5.0500  100.9460 N.3   186  ASP186     -0.1225
    128  CA        55.8740    3.7400  101.5580 C.3   186  ASP186      0.1805
    129  C         55.9850    2.5780  100.5670 C.2   186  ASP186      0.2598
    130  O         56.2520    1.4480  100.9760 O.2   186  ASP186     -0.2718
    131  CB        54.6960    3.4200  102.4730 C.3   186  ASP186      0.1424
    132  CG        53.5190    2.8270  101.7000 C.2   186  ASP186      0.3668
    133  OD1       53.0800    3.4630  100.7210 O.co2 186  ASP186     -0.2456
    134  OD2       53.0430    1.7230  102.0560 O.co2 186  ASP186     -0.2456
    135  N         55.7660    2.8220   99.2790 N.am  187  SER187     -0.1952
    136  CA        55.8180    1.7070   98.3420 C.3   187  SER187      0.1924
    137  C         56.2480    2.0100   96.9130 C.2   187  SER187      0.2314
    138  O         56.6360    3.1320   96.5730 O.2   187  SER187     -0.2863
    139  CB        54.4520    1.0210   98.2970 C.3   187  SER187      0.2116
    140  OG        53.5500    1.7770   97.5050 O.3   187  SER187     -0.2180
    141  N         54.6260    2.5610   94.2680 N.3   189  ASN189     -0.1240
    142  CA        53.9700    3.6420   93.5520 C.3   189  ASN189      0.1653
    143  C         54.3850    5.0110   94.0770 C.2   189  ASN189      0.2266
    144  O         53.7980    6.0230   93.7050 O.2   189  ASN189     -0.2867
    145  CB        52.4430    3.4890   93.5920 C.3   189  ASN189      0.1155
    146  CG        51.8380    3.9130   94.9120 C.2   189  ASN189      0.2627
    147  OD1       52.5290    4.3930   95.8130 O.2   189  ASN189     -0.2716
    148  ND2       50.5300    3.7440   95.0280 N.am  189  ASN189     -0.0877
@<TRIPOS>BOND
     1    71    72    1
     2    74    73    2
     3    73    72    1
     4    72    75    1
     5   122   121    2
     6    75    76    1
     7   121   120    1
     8    76    77    1
     9   120   119    1
    10   120   123    1
    11    56    55    2
    12    53    54    1
    13   123   124    1
    14    77    78    1
    15    65    64    2
    16    64    63    1
    17    55    54    1
    18    83    82    2
    19    54    57    1
    20    80    81    1
    21   124   125   ar
    22   124   126   ar
    23    49    48    2
    24    78    79    1
    25    57    58    1
    26    62    63    1
    27    82    81    1
    28    63    66    1
    29    48    47    1
    30    58    59    1
    31    81    84    1
    32    50    51    1
    33    50    52    1
    34    50    47    1
    35    66    67    1
    36    59    61   am
    37    59    60    2
    38   113   114    2
    39   113   112    1
    40    84    85    1
    41    47    46    1
    42    67    68    1
    43   105   104    2
    44    85    86   ar
    45    85    87   ar
    46   112   111    1
    47   112   115    1
    48    86    88   ar
    49    69    68   ar
    50    87    89   ar
    51   104   111   am
    52   104   103    1
    53    68    70   ar
    54    90    91    1
    55   115   116    1
    56    88    89   ar
    57    28    27    2
    58   142   145    1
    59   142   143    1
    60   142   141    1
    61   145   146    1
    62   144   143    2
    63   103   102    1
    64   103   106    1
    65    32    31    2
    66   117   116   ar
    67    27    26    1
    68    27    29   am
    69   116   118   ar
    70    31    30    1
    71    95    94    1
    72    91    94    1
    73    91    92    1
    74    26    25    1
    75   106   107    1
    76    93    92    2
    77   146   148   am
    78   146   147    2
    79    30    29    1
    80    30    33    1
    81    92    96   am
    82   107   108    1
    83    40    41    1
    84   108   109    1
    85    96    97    1
    86   138   137    2
    87    33    34    1
    88   109   110    1
    89    44    41    1
    90    44    45    1
    91   137   136    1
    92    98    97    1
    93    98    99    2
    94    41    42    1
    95    97   100    1
    96   140   139    1
    97    34    35    1
    98   100   101    1
    99    42    43    2
   100   139   136    1
   101   136   135    1
   102    35    36    1
   103     7     6   ar
   104     8     6   ar
   105   135   129   am
   106     6     5    1
   107     5     2    1
   108    36    37    2
   109     2     1    1
   110     2     3    1
   111   129   130    2
   112   129   128    1
   113    15    14   ar
   114    38    37    1
   115   133   132   ar
   116    37    39    1
   117   127   128    1
   118     3     4    2
   119   128   131    1
   120    14    13    1
   121    14    16   ar
   122   132   134   ar
   123   132   131    1
   124    13    10    1
   125     9    10    1
   126    12    11    2
   127    24    22   am
   128    10    11    1
   129    11    17   am
   130    22    21    1
   131    22    23    2
   132    21    18    1
   133    17    18    1
   134    18    19    1
   135    19    20    2
