@<TRIPOS>MOLECULE
tmp/1tj9A00.pdb
 140 141 0 0 0
SMALL
GASTEIGER

@<TRIPOS>ATOM
      1  N         42.3940   35.2750    1.0110 N.3     5  PHE5       -0.1241
      2  CA        43.6480   34.8670    0.3950 C.3     5  PHE5        0.1605
      3  C         43.6560   33.3550    0.1840 C.2     5  PHE5        0.2264
      4  O         44.0640   32.8790   -0.8690 O.2     5  PHE5       -0.2867
      5  CB        44.8140   35.3380    1.2900 C.3     5  PHE5        0.0534
      6  CG        46.2090   35.0750    0.7600 C.ar    5  PHE5       -0.0203
      7  CD1       46.5320   35.1940   -0.5980 C.ar    5  PHE5       -0.0042
      8  CD2       47.2140   34.7820    1.6430 C.ar    5  PHE5       -0.0042
      9  CE1       47.8170   34.9800   -1.0320 C.ar    5  PHE5       -0.0003
     10  CE2       48.5130   34.5850    1.2100 C.ar    5  PHE5       -0.0003
     11  CZ        48.8050   34.7060   -0.1440 C.ar    5  PHE5       -0.0000
     12  N         59.0310   30.9930    5.0230 N.3    27  TYR27      -0.1241
     13  CA        58.2180   32.2050    4.9650 C.3    27  TYR27       0.1605
     14  C         56.7270   32.0030    4.7570 C.2    27  TYR27       0.2264
     15  O         55.9640   32.9680    4.9420 O.2    27  TYR27      -0.2867
     16  CB        58.7690   33.1730    3.9050 C.3    27  TYR27       0.0534
     17  CG        60.0980   33.7260    4.3430 C.ar   27  TYR27      -0.0201
     18  CD1       61.2820   33.1070    3.9900 C.ar   27  TYR27      -0.0009
     19  CD2       60.1580   34.8180    5.1870 C.ar   27  TYR27      -0.0009
     20  CE1       62.4850   33.5810    4.4340 C.ar   27  TYR27       0.0417
     21  CE2       61.3590   35.2970    5.6460 C.ar   27  TYR27       0.0417
     22  CZ        62.5300   34.6810    5.2680 C.ar   27  TYR27       0.1957
     23  OH        63.7240   35.2040    5.7370 O.3    27  TYR27      -0.2866
     24  N         53.1800   31.1310    5.7220 N.3    29  GLY29      -0.1210
     25  CA        52.2830   30.8920    6.8300 C.3    29  GLY29       0.1956
     26  C         52.8140   31.3980    8.1390 C.2    29  GLY29       0.2612
     27  O         52.0340   31.6240    9.0650 O.2    29  GLY29      -0.2717
     28  N         54.1290   31.5730    8.2210 N.am   30  TRP30      -0.1962
     29  CA        54.7790   32.0410    9.4410 C.3    30  TRP30       0.1771
     30  C         56.2190   32.5530    9.1980 C.2    30  TRP30       0.2620
     31  O         57.1140   32.3740   10.0310 O.2    30  TRP30      -0.2715
     32  CB        54.7650   30.9160   10.4870 C.3    30  TRP30       0.0590
     33  CG        53.9760   31.2340   11.7050 C.ar   30  TRP30       0.0006
     34  CD1       52.6310   31.4510   11.7870 C.ar   30  TRP30       0.0946
     35  CD2       54.4830   31.3760   13.0280 C.ar   30  TRP30       0.0152
     36  NE1       52.2720   31.7210   13.0850 N.ar   30  TRP30      -0.2442
     37  CE2       53.3950   31.6840   13.8660 C.ar   30  TRP30       0.0810
     38  CE3       55.7550   31.2830   13.5950 C.ar   30  TRP30       0.0012
     39  CZ2       53.5410   31.8890   15.2300 C.ar   30  TRP30       0.0191
     40  CZ3       55.8930   31.4890   14.9390 C.ar   30  TRP30       0.0001
     41  CH2       54.7960   31.7870   15.7450 C.ar   30  TRP30       0.0015
     42  N         56.4280   33.2310    8.0720 N.am   31  GLY31      -0.1940
     43  CA        57.7380   33.7490    7.7140 C.3    31  GLY31       0.2014
     44  C         58.3760   34.6830    8.7180 C.2    31  GLY31       0.2639
     45  O         57.6940   35.2440    9.5670 O.2    31  GLY31      -0.2714
     46  N         59.6920   34.8630    8.6020 N.am   32  GLY32      -0.1954
     47  CA        60.4340   35.7500    9.4870 C.3    32  GLY32       0.1869
     48  C         61.9290   35.8070    9.2270 C.2    32  GLY32       0.2309
     49  O         62.5150   36.8880    9.1120 O.2    32  GLY32      -0.2863
     50  N         55.5690   38.2620   -0.3520 N.3    47  HIS47      -0.1226
     51  CA        54.2410   38.5650    0.1750 C.3    47  HIS47       0.1752
     52  C         54.3500   39.1510    1.5660 C.2    47  HIS47       0.2596
     53  O         53.6540   40.1090    1.9030 O.2    47  HIS47      -0.2718
     54  CB        53.3970   37.2940    0.1550 C.3    47  HIS47       0.0759
     55  CG        51.9760   37.4990    0.5720 C.ar   47  HIS47       0.0818
     56  ND1       51.4820   36.9590    1.7370 N.ar   47  HIS47      -0.2268
     57  CD2       50.9410   38.1340   -0.0260 C.ar   47  HIS47       0.1154
     58  CE1       50.2040   37.2900    1.8580 C.ar   47  HIS47       0.1986
     59  NE2       49.8430   37.9780    0.7910 N.ar   47  HIS47      -0.2212
     60  N         55.2360   38.6010    2.3720 N.am   48  ASP48      -0.1960
     61  CA        55.4880   39.1410    3.6930 C.3    48  ASP48       0.1840
     62  C         56.0170   40.5760    3.5950 C.2    48  ASP48       0.2622
     63  O         55.5640   41.4570    4.3250 O.2    48  ASP48      -0.2715
     64  CB        56.4970   38.2980    4.4550 C.3    48  ASP48       0.1450
     65  CG        55.9800   36.9270    4.8400 C.2    48  ASP48       0.3671
     66  OD1       54.7720   36.6290    4.7470 O.co2  48  ASP48      -0.2456
     67  OD2       56.7960   36.0390    5.1920 O.co2  48  ASP48      -0.2456
     68  N         56.9480   40.8300    2.6840 N.am   49  CYS49      -0.1968
     69  CA        57.4490   42.1760    2.4640 C.3    49  CYS49       0.1712
     70  C         56.3190   43.1020    2.0280 C.2    49  CYS49       0.2296
     71  O         56.2690   44.2820    2.4100 O.2    49  CYS49      -0.2864
     72  CB        58.5600   42.1810    1.4030 C.3    49  CYS49       0.0983
     73  SG        60.0600   41.2820    1.8620 S.3    49  CYS49      -0.0798
     74  N         53.0880   42.9050    2.6480 N.3    51  TYR51      -0.1227
     75  CA        52.2980   43.2740    3.8130 C.3    51  TYR51       0.1736
     76  C         53.0960   44.2310    4.6930 C.2    51  TYR51       0.2596
     77  O         52.5230   45.1470    5.3080 O.2    51  TYR51      -0.2718
     78  CB        51.9210   42.0440    4.6160 C.3    51  TYR51       0.0548
     79  CG        50.7330   41.2350    4.1250 C.ar   51  TYR51      -0.0200
     80  CD1       50.0530   41.5280    2.9570 C.ar   51  TYR51      -0.0009
     81  CD2       50.3100   40.1600    4.8580 C.ar   51  TYR51      -0.0009
     82  CE1       48.9790   40.7690    2.5620 C.ar   51  TYR51       0.0417
     83  CE2       49.2520   39.3990    4.4720 C.ar   51  TYR51       0.0417
     84  CZ        48.5810   39.7010    3.3270 C.ar   51  TYR51       0.1957
     85  OH        47.4930   38.9120    2.9950 O.3    51  TYR51      -0.2866
     86  N         54.4170   44.0470    4.7480 N.am   52  GLY52      -0.1957
     87  CA        55.3040   44.9490    5.4780 C.3    52  GLY52       0.1869
     88  C         55.3080   46.3810    4.9640 C.2    52  GLY52       0.2309
     89  O         55.6450   47.3250    5.7130 O.2    52  GLY52      -0.2863
     90  N         52.7400   47.9180    4.4350 N.3    54  LEU54      -0.1231
     91  CA        51.4290   48.4160    4.9130 C.3    54  LEU54       0.1678
     92  C         51.2540   48.3450    6.4360 C.2    54  LEU54       0.2434
     93  O         50.3400   47.7080    6.9350 O.2    54  LEU54      -0.2733
     94  CB        50.3140   47.5940    4.2560 C.3    54  LEU54       0.0284
     95  CG        50.4630   47.3550    2.7600 C.3    54  LEU54       0.0019
     96  CD1       49.3780   46.3850    2.2770 C.3    54  LEU54       0.0001
     97  CD2       50.4290   48.6860    2.0170 C.3    54  LEU54       0.0001
     98  N         52.1210   49.0260    7.1880 N.am   55  PRO55      -0.2729
     99  CA        52.1180   48.9020    8.6440 C.3    55  PRO55       0.1401
    100  C         50.8270   49.3570    9.3040 C.2    55  PRO55       0.2269
    101  O         50.5890   48.9330   10.4060 O.2    55  PRO55      -0.2865
    102  CB        53.2900   49.8080    9.0580 C.3    55  PRO55       0.0296
    103  CG        53.3860   50.7500    8.0080 C.3    55  PRO55       0.0237
    104  CD        53.1720   49.9580    6.7460 C.3    55  PRO55       0.0939
    105  N         47.7980   48.9120    7.9230 N.3    57  CYS57      -0.1221
    106  CA        46.7190   48.0800    7.4340 C.3    57  CYS57       0.1808
    107  C         46.6820   46.7820    8.2090 C.2    57  CYS57       0.2601
    108  O         47.6270   46.4450    8.9150 O.2    57  CYS57      -0.2717
    109  CB        46.8700   47.8140    5.9280 C.3    57  CYS57       0.0970
    110  SG        46.9630   49.3320    4.9110 S.3    57  CYS57      -0.0800
    111  N         45.6170   46.0030    8.0520 N.am   58  ASN58      -0.1961
    112  CA        45.3650   44.7990    8.8270 C.3    58  ASN58       0.1804
    113  C         44.9850   43.6730    7.8730 C.2    58  ASN58       0.2463
    114  O         43.8390   43.3060    7.7470 O.2    58  ASN58      -0.2730
    115  CB        44.2870   45.0840    9.8470 C.3    58  ASN58       0.1195
    116  CG        44.7490   46.1090   10.8680 C.2    58  ASN58       0.2630
    117  OD1       45.4760   45.7710   11.7990 O.2    58  ASN58      -0.2716
    118  ND2       44.3900   47.3470   10.6810 N.am   58  ASN58      -0.0877
    119  N         45.9780   43.1390    7.1670 N.am   59  PRO59      -0.2716
    120  CA        45.7250   42.1560    6.1120 C.3    59  PRO59       0.1536
    121  C         45.0980   40.8380    6.5690 C.2    59  PRO59       0.2598
    122  O         44.5120   40.1350    5.7390 O.2    59  PRO59      -0.2715
    123  CB        47.1200   41.9170    5.5090 C.3    59  PRO59       0.0310
    124  CG        47.9730   42.9850    5.9700 C.3    59  PRO59       0.0237
    125  CD        47.4080   43.4400    7.2890 C.3    59  PRO59       0.0939
    126  N         45.2180   40.4590    7.8330 N.am   60  LYS60      -0.1978
    127  CA        44.6100   39.2060    8.2680 C.3    60  LYS60       0.1596
    128  C         43.1020   39.2680    8.2600 C.2    60  LYS60       0.2287
    129  O         42.4440   38.2910    7.9190 O.2    60  LYS60      -0.2864
    130  CB        45.0720   38.8610    9.6780 C.3    60  LYS60       0.0298
    131  CG        46.5590   38.8240    9.7850 C.3    60  LYS60       0.0038
    132  CD        47.1360   37.4630    9.4990 C.3    60  LYS60       0.0206
    133  CE        48.5750   37.3620    9.9800 C.3    60  LYS60       0.1093
    134  NZ        48.7550   37.8650   11.3490 N.3    60  LYS60      -0.1314
    135  N         63.9970   42.9720    2.7300 N.3   121  CYS121     -0.1235
    136  CA        63.0560   43.1500    1.6400 C.3   121  CYS121      0.1677
    137  C         63.5550   44.0880    0.5620 C.2   121  CYS121      0.2270
    138  O         63.1740   43.8890   -0.5720 O.2   121  CYS121     -0.2867
    139  CB        61.7540   43.7010    2.1780 C.3   121  CYS121      0.0956
    140  SG        60.8740   42.5300    3.2370 S.3   121  CYS121     -0.0801
@<TRIPOS>BOND
     1     9     7   ar
     2     9    11   ar
     3     4     3    2
     4     7     6   ar
     5   138   137    2
     6    50    51    1
     7    11    10   ar
     8    57    55   ar
     9    57    59   ar
    10    54    51    1
    11    54    55    1
    12    51    52    1
    13     3     2    1
    14     2     1    1
    15     2     5    1
    16   137   136    1
    17    55    56   ar
    18     6     5    1
    19     6     8   ar
    20    59    58   ar
    21    10     8   ar
    22    72    73    1
    23    72    69    1
    24    52    53    2
    25    52    60   am
    26   136   139    1
    27   136   135    1
    28    56    58   ar
    29    73   140    1
    30    97    95    1
    31    70    71    2
    32    70    69    1
    33   139   140    1
    34    96    95    1
    35    60    61    1
    36    69    68    1
    37    82    80   ar
    38    82    84   ar
    39    74    75    1
    40    68    62   am
    41    95    94    1
    42    80    79   ar
    43    85    84    1
    44    84    83   ar
    45    62    61    1
    46    62    63    2
    47    61    64    1
    48    75    78    1
    49    75    76    1
    50    16    17    1
    51    16    13    1
    52    18    17   ar
    53    18    20   ar
    54    79    78    1
    55    79    81   ar
    56    94    91    1
    57    17    19   ar
    58    20    22   ar
    59    90    91    1
    60    64    65    1
    61    83    81   ar
    62    76    86   am
    63    76    77    2
    64    66    65   ar
    65    86    87    1
    66    14    15    2
    67    14    13    1
    68    65    67   ar
    69   110   109    1
    70    91    92    1
    71    88    87    1
    72    88    89    2
    73    13    12    1
    74    19    21   ar
    75    22    21   ar
    76    22    23    1
    77   123   124    1
    78   123   120    1
    79    24    25    1
    80   122   121    2
    81   109   106    1
    82   124   125    1
    83   120   121    1
    84   120   119    1
    85    92    93    2
    86    92    98   am
    87   121   126   am
    88   104    98    1
    89   104   103    1
    90    25    26    1
    91   119   125    1
    92   119   113   am
    93    98    99    1
    94   106   105    1
    95   106   107    1
    96    43    42    1
    97    43    44    1
    98   114   113    2
    99   126   127    1
   100   113   112    1
   101   129   128    2
   102   103   102    1
   103   111   107   am
   104   111   112    1
   105    42    30   am
   106    26    28   am
   107    26    27    2
   108   107   108    2
   109    28    29    1
   110   128   127    1
   111   127   130    1
   112    46    44   am
   113    46    47    1
   114    99   102    1
   115    99   100    1
   116    44    45    2
   117   112   115    1
   118    49    48    2
   119    30    29    1
   120    30    31    2
   121    48    47    1
   122   100   101    2
   123    29    32    1
   124   132   131    1
   125   132   133    1
   126   130   131    1
   127   115   116    1
   128   133   134    1
   129    32    33    1
   130   118   116   am
   131   116   117    2
   132    33    34   ar
   133    33    35   ar
   134    34    36   ar
   135    35    38   ar
   136    35    37   ar
   137    36    37   ar
   138    38    40   ar
   139    37    39   ar
   140    40    41   ar
   141    39    41   ar
