@<TRIPOS>MOLECULE
tmp/1tjkA00.pdb
 151 149 0 0 0
SMALL
GASTEIGER

@<TRIPOS>ATOM
      1  N         42.6870   36.6730    5.5150 N.3     2  LEU2       -0.1231
      2  CA        43.2930   35.3520    5.4150 C.3     2  LEU2        0.1693
      3  C         42.3870   34.3140    4.7620 C.2     2  LEU2        0.2591
      4  O         42.8360   33.5330    3.9190 O.2     2  LEU2       -0.2718
      5  CB        43.7390   34.8690    6.7960 C.3     2  LEU2        0.0284
      6  CG        44.4660   33.5290    6.8070 C.3     2  LEU2        0.0019
      7  CD1       45.5450   33.4680    5.7560 C.3     2  LEU2        0.0001
      8  CD2       45.0360   33.2650    8.1720 C.3     2  LEU2        0.0001
      9  N         41.1190   34.2900    5.1460 N.am    3  LEU3       -0.1980
     10  CA        40.1970   33.3270    4.5550 C.3     3  LEU3        0.1596
     11  C         39.9800   33.5760    3.0600 C.2     3  LEU3        0.2287
     12  O         39.9130   32.6190    2.2770 O.2     3  LEU3       -0.2864
     13  CB        38.8760   33.3270    5.3140 C.3     3  LEU3        0.0297
     14  CG        38.9320   32.4290    6.5520 C.3     3  LEU3        0.0022
     15  CD1       37.8530   32.8130    7.5360 C.3     3  LEU3        0.0001
     16  CD2       38.8060   30.9680    6.1620 C.3     3  LEU3        0.0001
     17  N         42.1510   35.0670    1.0610 N.3     5  PHE5       -0.1241
     18  CA        43.4200   34.6890    0.4530 C.3     5  PHE5        0.1605
     19  C         43.4460   33.1730    0.2520 C.2     5  PHE5        0.2264
     20  O         43.8630   32.6990   -0.8010 O.2     5  PHE5       -0.2867
     21  CB        44.5810   35.1870    1.3440 C.3     5  PHE5        0.0534
     22  CG        45.9690   34.9180    0.8160 C.ar    5  PHE5       -0.0203
     23  CD1       46.2860   35.0330   -0.5320 C.ar    5  PHE5       -0.0042
     24  CD2       46.9770   34.6030    1.7060 C.ar    5  PHE5       -0.0042
     25  CE1       47.5730   34.8190   -0.9660 C.ar    5  PHE5       -0.0003
     26  CE2       48.2590   34.3780    1.2800 C.ar    5  PHE5       -0.0003
     27  CZ        48.5590   34.4960   -0.0630 C.ar    5  PHE5       -0.0000
     28  N         43.8960   31.2560   -3.2630 N.3     9  ILE9       -0.1245
     29  CA        44.9290   30.2410   -3.4630 C.3     9  ILE9        0.1561
     30  C         44.3360   28.9450   -4.0250 C.2     9  ILE9        0.2260
     31  O         44.8710   28.3770   -4.9890 O.2     9  ILE9       -0.2867
     32  CB        45.6710   29.9700   -2.1400 C.3     9  ILE9        0.0252
     33  CG1       46.4760   31.2060   -1.7250 C.3     9  ILE9        0.0019
     34  CG2       46.5840   28.7570   -2.2770 C.3     9  ILE9        0.0019
     35  CD1       46.9750   31.1800   -0.2870 C.3     9  ILE9        0.0001
     36  N         44.8360   25.9900    0.9000 N.3    17  ALA17      -0.1231
     37  CA        45.8250   26.8540    1.5480 C.3    17  ALA17       0.1694
     38  C         46.3420   26.2040    2.8240 C.2    17  ALA17       0.2591
     39  O         47.5380   26.2010    3.0800 O.2    17  ALA17      -0.2718
     40  CB        45.2220   28.2280    1.8250 C.3    17  ALA17       0.0304
     41  N         45.4140   25.6950    3.6350 N.am   18  ILE18      -0.1980
     42  CA        45.7430   24.8440    4.7790 C.3    18  ILE18       0.1595
     43  C         45.4290   23.4340    4.2590 C.2    18  ILE18       0.2287
     44  O         44.2620   23.1470    3.9910 O.2    18  ILE18      -0.2864
     45  CB        44.8340   25.1380    6.0000 C.3    18  ILE18       0.0276
     46  CG1       44.8540   26.6120    6.3630 C.3    18  ILE18       0.0022
     47  CG2       45.2670   24.2970    7.2080 C.3    18  ILE18       0.0022
     48  CD1       43.7680   27.0020    7.3610 C.3    18  ILE18       0.0001
     49  N         49.9970   25.6060    2.0860 N.3    21  TYR21      -0.1227
     50  CA        50.9150   26.8090    2.1950 C.3    21  TYR21       0.1736
     51  C         50.8370   27.4270    3.5500 C.2    21  TYR21       0.2596
     52  O         51.3290   28.5260    3.7700 O.2    21  TYR21      -0.2718
     53  CB        50.5100   27.9410    1.2030 C.3    21  TYR21       0.0548
     54  CG        50.5540   27.5050   -0.2400 C.ar   21  TYR21      -0.0200
     55  CD1       51.7400   27.5610   -0.9670 C.ar   21  TYR21      -0.0009
     56  CD2       49.4220   27.0180   -0.8630 C.ar   21  TYR21      -0.0009
     57  CE1       51.7850   27.1160   -2.2690 C.ar   21  TYR21       0.0417
     58  CE2       49.4660   26.5710   -2.1610 C.ar   21  TYR21       0.0417
     59  CZ        50.6550   26.6340   -2.8680 C.ar   21  TYR21       0.1957
     60  OH        50.7130   26.1880   -4.1740 O.3    21  TYR21      -0.2866
     61  N         50.2230   26.7700    4.4990 N.am   22  SER22      -0.1952
     62  CA        50.1040   27.3680    5.7880 C.3    22  SER22       0.1924
     63  C         51.3260   27.1210    6.6650 C.2    22  SER22       0.2314
     64  O         51.4890   27.7860    7.6900 O.2    22  SER22      -0.2863
     65  CB        48.8540   26.8480    6.4770 C.3    22  SER22       0.2116
     66  OG        48.7320   25.4410    6.3280 O.3    22  SER22      -0.2180
     67  N         58.8310   30.8050    5.0910 N.3    27  TYR27      -0.1227
     68  CA        58.0120   32.0200    5.0420 C.3    27  TYR27       0.1736
     69  C         56.5180   31.8480    4.8310 C.2    27  TYR27       0.2596
     70  O         55.7620   32.8020    5.0300 O.2    27  TYR27      -0.2718
     71  CB        58.5650   32.9640    3.9740 C.3    27  TYR27       0.0548
     72  CG        59.8900   33.5250    4.4090 C.ar   27  TYR27      -0.0200
     73  CD1       61.0810   32.9200    4.0330 C.ar   27  TYR27      -0.0009
     74  CD2       59.9500   34.6160    5.2640 C.ar   27  TYR27      -0.0009
     75  CE1       62.2930   33.4090    4.4590 C.ar   27  TYR27       0.0417
     76  CE2       61.1550   35.1120    5.7000 C.ar   27  TYR27       0.0417
     77  CZ        62.3270   34.5050    5.3010 C.ar   27  TYR27       0.1957
     78  OH        63.5320   35.0210    5.7440 O.3    27  TYR27      -0.2866
     79  N         56.0830   30.6590    4.4420 N.am   28  CYS28      -0.1956
     80  CA        54.6630   30.4310    4.1880 C.3    28  CYS28       0.1843
     81  C         53.9360   30.0930    5.4690 C.2    28  CYS28       0.2626
     82  O         54.3980   29.2830    6.2640 O.2    28  CYS28      -0.2714
     83  CB        54.4650   29.2870    3.2050 C.3    28  CYS28       0.0997
     84  SG        55.1430   29.6000    1.5730 S.3    28  CYS28      -0.0797
     85  N         52.8010   30.7210    5.6790 N.am   29  GLY29      -0.1940
     86  CA        51.9760   30.4340    6.8250 C.3    29  GLY29       0.2014
     87  C         52.5470   30.9100    8.1430 C.2    29  GLY29       0.2639
     88  O         51.7890   30.9800    9.1130 O.2    29  GLY29      -0.2714
     89  N         53.8680   31.2430    8.2290 N.am   30  TRP30      -0.1959
     90  CA        54.3110   31.6950    9.5380 C.3    30  TRP30       0.1771
     91  C         55.6110   32.4680    9.7650 C.2    30  TRP30       0.2620
     92  O         55.5930   33.5120   10.4190 O.2    30  TRP30      -0.2715
     93  CB        54.4420   30.5020   10.4680 C.3    30  TRP30       0.0590
     94  CG        53.9670   30.9500   11.7690 C.ar   30  TRP30       0.0006
     95  CD1       52.7000   31.3260   12.0150 C.ar   30  TRP30       0.0946
     96  CD2       54.7040   31.0990   12.9790 C.ar   30  TRP30       0.0152
     97  NE1       52.5720   31.6940   13.3190 N.ar   30  TRP30      -0.2442
     98  CE2       53.7900   31.5820   13.9360 C.ar   30  TRP30       0.0810
     99  CE3       56.0330   30.8950   13.3700 C.ar   30  TRP30       0.0012
    100  CZ2       54.1510   31.8630   15.2430 C.ar   30  TRP30       0.0191
    101  CZ3       56.3910   31.1820   14.6800 C.ar   30  TRP30       0.0001
    102  CH2       55.4500   31.6600   15.5980 C.ar   30  TRP30       0.0015
    103  N         56.7190   31.9670    9.2590 N.am   31  GLY31      -0.1954
    104  CA        58.0400   32.5640    9.5480 C.3    31  GLY31       0.1869
    105  C         58.3690   34.0040    9.1310 C.2    31  GLY31       0.2309
    106  O         57.5770   34.7100    8.4930 O.2    31  GLY31      -0.2863
    107  N         56.0920   33.4830   -0.6990 N.3    44  CYS44      -0.1235
    108  CA        55.6770   33.8530    0.6440 C.3    44  CYS44       0.1677
    109  C         56.5610   34.9230    1.2520 C.2    44  CYS44       0.2270
    110  O         56.0530   35.7710    1.9760 O.2    44  CYS44      -0.2867
    111  CB        55.6350   32.6270    1.5470 C.3    44  CYS44       0.0956
    112  SG        54.3970   31.4150    1.0150 S.3    44  CYS44      -0.0801
    113  N         55.3510   38.0760   -0.2790 N.3    47  HIS47      -0.1226
    114  CA        54.0280   38.3690    0.2480 C.3    47  HIS47       0.1752
    115  C         54.1550   38.9520    1.6470 C.2    47  HIS47       0.2596
    116  O         53.4520   39.9000    1.9940 O.2    47  HIS47      -0.2718
    117  CB        53.1890   37.0870    0.2440 C.3    47  HIS47       0.0759
    118  CG        51.7690   37.2800    0.6620 C.ar   47  HIS47       0.0818
    119  ND1       51.2720   36.7770    1.8430 N.ar   47  HIS47      -0.2268
    120  CD2       50.7380   37.8990    0.0470 C.ar   47  HIS47       0.1154
    121  CE1       49.9910   37.0870    1.9420 C.ar   47  HIS47       0.1986
    122  NE2       49.6400   37.7610    0.8620 N.ar   47  HIS47      -0.2212
    123  N         55.0450   38.3960    2.4600 N.am   48  ASP48      -0.1974
    124  CA        55.2850   38.9270    3.8020 C.3    48  ASP48       0.1709
    125  C         55.7940   40.3690    3.7050 C.2    48  ASP48       0.2293
    126  O         55.3410   41.2520    4.4330 O.2    48  ASP48      -0.2864
    127  CB        56.3120   38.0970    4.5750 C.3    48  ASP48       0.1436
    128  CG        55.8210   36.7140    4.9440 C.2    48  ASP48       0.3671
    129  OD1       54.6160   36.4170    4.8360 O.co2  48  ASP48      -0.2456
    130  OD2       56.6140   35.8430    5.3600 O.co2  48  ASP48      -0.2456
    131  N         52.8620   42.7050    2.7590 N.3    51  TYR51      -0.1241
    132  CA        52.0830   43.0680    3.9320 C.3    51  TYR51       0.1605
    133  C         52.8800   44.0370    4.8180 C.2    51  TYR51       0.2264
    134  O         52.3140   44.9400    5.4430 O.2    51  TYR51      -0.2867
    135  CB        51.7240   41.8250    4.7310 C.3    51  TYR51       0.0534
    136  CG        50.5290   41.0250    4.2430 C.ar   51  TYR51      -0.0201
    137  CD1       49.8410   41.3340    3.0720 C.ar   51  TYR51      -0.0009
    138  CD2       50.1020   39.9430    4.9770 C.ar   51  TYR51      -0.0009
    139  CE1       48.7560   40.5720    2.6710 C.ar   51  TYR51       0.0417
    140  CE2       49.0390   39.1840    4.5890 C.ar   51  TYR51       0.0417
    141  CZ        48.3630   39.4990    3.4390 C.ar   51  TYR51       0.1957
    142  OH        47.2830   38.7210    3.0680 O.3    51  TYR51      -0.2866
    143  N         44.9890   40.2420    7.8560 N.3    60  LYS60      -0.1245
    144  CA        44.3780   38.9980    8.3100 C.3    60  LYS60       0.1561
    145  C         42.8600   39.0460    8.3040 C.2    60  LYS60       0.2260
    146  O         42.1970   38.0660    7.9730 O.2    60  LYS60      -0.2867
    147  CB        44.8440   38.6570    9.7290 C.3    60  LYS60       0.0271
    148  CG        46.3210   38.5770    9.8370 C.3    60  LYS60       0.0035
    149  CD        46.7560   37.6870   10.9750 C.3    60  LYS60       0.0206
    150  CE        48.2050   37.3000   10.8080 C.3    60  LYS60       0.1093
    151  NZ        48.8170   36.9500   12.1170 N.3    60  LYS60      -0.1314
@<TRIPOS>BOND
     1    31    30    2
     2    60    59    1
     3    30    29    1
     4    29    28    1
     5    29    32    1
     6    59    57   ar
     7    59    58   ar
     8    34    32    1
     9    57    55   ar
    10    58    56   ar
    11    32    33    1
    12    33    35    1
    13    55    54   ar
    14    25    23   ar
    15    25    27   ar
    16    56    54   ar
    17    20    19    2
    18   107   108    1
    19    23    22   ar
    20   113   114    1
    21    54    53    1
    22    27    26   ar
    23   120   118   ar
    24   120   122   ar
    25   117   114    1
    26   117   118    1
    27   114   115    1
    28    19    18    1
    29    18    17    1
    30    18    21    1
    31   108   109    1
    32   108   111    1
    33   118   119   ar
    34    22    21    1
    35    22    24   ar
    36   122   121   ar
    37    36    37    1
    38   112   111    1
    39   112    84    1
    40    53    50    1
    41   109   110    2
    42    26    24   ar
    43    37    40    1
    44    37    38    1
    45    84    83    1
    46   115   116    2
    47   115   123   am
    48   119   121   ar
    49    49    50    1
    50    50    51    1
    51    12    11    2
    52   123   124    1
    53   139   137   ar
    54   139   141   ar
    55   131   132    1
    56    38    39    2
    57    38    41   am
    58    11    10    1
    59   142   141    1
    60   137   136   ar
    61    83    80    1
    62   141   140   ar
    63    51    52    2
    64    51    61   am
    65    41    42    1
    66   125   124    1
    67   125   126    2
    68   124   127    1
    69     4     3    2
    70   132   135    1
    71   132   133    1
    72    71    72    1
    73    71    68    1
    74    44    43    2
    75    73    72   ar
    76    73    75   ar
    77    80    79    1
    78    80    81    1
    79   136   135    1
    80   136   138   ar
    81    43    42    1
    82    72    74   ar
    83    79    69   am
    84    75    77   ar
    85    61    62    1
    86    10     9    1
    87    10    13    1
    88   127   128    1
    89   140   138   ar
    90     3     9   am
    91     3     2    1
    92    42    45    1
    93   133   134    2
    94    69    70    2
    95    69    68    1
    96   129   128   ar
    97   128   130   ar
    98    68    67    1
    99    74    76   ar
   100    77    76   ar
   101    77    78    1
   102    13    14    1
   103     2     1    1
   104     2     5    1
   105    81    85   am
   106    81    82    2
   107    85    86    1
   108     7     6    1
   109    62    65    1
   110    62    63    1
   111    45    46    1
   112    45    47    1
   113    16    14    1
   114    66    65    1
   115    46    48    1
   116    14    15    1
   117    63    64    2
   118     5     6    1
   119     6     8    1
   120    86    87    1
   121   143   144    1
   122   146   145    2
   123    87    89   am
   124    87    88    2
   125    89    90    1
   126   145   144    1
   127   144   147    1
   128   106   105    2
   129   105   104    1
   130   103   104    1
   131   103    91   am
   132    90    91    1
   133    90    93    1
   134   147   148    1
   135    91    92    2
   136   148   149    1
   137    93    94    1
   138   150   149    1
   139   150   151    1
   140    94    95   ar
   141    94    96   ar
   142    95    97   ar
   143    96    99   ar
   144    96    98   ar
   145    97    98   ar
   146    99   101   ar
   147    98   100   ar
   148   101   102   ar
   149   100   102   ar
