@<TRIPOS>MOLECULE
tmp/1tjpA00.pdb
 162 153 0 0 0
SMALL
GASTEIGER

@<TRIPOS>ATOM
      1  N         45.3140   33.2890   16.2760 N.3    22  PHE22      -0.1241
      2  CA        46.5440   32.8990   16.9450 C.3    22  PHE22       0.1605
      3  C         47.5720   34.0080   16.8080 C.2    22  PHE22       0.2264
      4  O         47.6850   34.6370   15.7530 O.2    22  PHE22      -0.2867
      5  CB        47.1390   31.6130   16.3490 C.3    22  PHE22       0.0534
      6  CG        48.6110   31.4210   16.6660 C.ar   22  PHE22      -0.0203
      7  CD1       49.5940   32.1130   15.9550 C.ar   22  PHE22      -0.0042
      8  CD2       49.0080   30.5960   17.7110 C.ar   22  PHE22      -0.0042
      9  CE1       50.9470   31.9850   16.2850 C.ar   22  PHE22      -0.0003
     10  CE2       50.3570   30.4600   18.0490 C.ar   22  PHE22      -0.0003
     11  CZ        51.3280   31.1560   17.3370 C.ar   22  PHE22      -0.0000
     12  N         44.4540   31.2630   20.6450 N.3    49  GLU49      -0.1245
     13  CA        45.5640   30.2880   20.6440 C.3    49  GLU49       0.1567
     14  C         46.8010   31.2140   20.7690 C.2    49  GLU49       0.2260
     15  O         46.9670   32.1910   19.9880 O.2    49  GLU49      -0.2867
     16  CB        45.6070   29.4940   19.3500 C.3    49  GLU49       0.0388
     17  CG        46.6520   28.4100   19.4340 C.3    49  GLU49       0.1160
     18  CD        47.0210   27.8210   18.0790 C.2    49  GLU49       0.3649
     19  OE1       46.1550   27.6970   17.2170 O.co2  49  GLU49      -0.2457
     20  OE2       48.2140   27.5020   17.9240 O.co2  49  GLU49      -0.2457
     21  N         57.4140   23.6150   13.2310 N.3    59  ALA59      -0.1231
     22  CA        56.1260   23.4030   12.5130 C.3    59  ALA59       0.1694
     23  C         55.6340   24.7110   11.9230 C.2    59  ALA59       0.2592
     24  O         54.5170   24.7910   11.4030 O.2    59  ALA59      -0.2718
     25  CB        55.0370   22.8330   13.4740 C.3    59  ALA59       0.0304
     26  N         56.4590   25.7590   12.0040 N.am   60  ASP60      -0.1974
     27  CA        56.0310   27.0690   11.5030 C.3    60  ASP60       0.1709
     28  C         56.7360   27.6070   10.2690 C.2    60  ASP60       0.2293
     29  O         57.9610   27.4870   10.1420 O.2    60  ASP60      -0.2864
     30  CB        56.1970   28.1130   12.6280 C.3    60  ASP60       0.1436
     31  CG        55.1500   27.9490   13.7300 C.2    60  ASP60       0.3671
     32  OD1       53.9570   28.1540   13.3830 O.co2  60  ASP60      -0.2456
     33  OD2       55.5160   27.6290   14.9130 O.co2  60  ASP60      -0.2456
     34  N         55.3280   33.0500   11.1280 N.3    64  ILE64      -0.1245
     35  CA        55.4130   32.8150   12.5700 C.3    64  ILE64       0.1561
     36  C         56.8860   32.6730   13.0350 C.2    64  ILE64       0.2260
     37  O         57.2150   33.0430   14.1620 O.2    64  ILE64      -0.2867
     38  CB        54.4510   31.6710   12.9610 C.3    64  ILE64       0.0252
     39  CG1       53.0180   32.2340   12.8900 C.3    64  ILE64       0.0019
     40  CG2       54.6550   31.2470   14.4200 C.3    64  ILE64       0.0019
     41  CD1       51.9600   31.1090   12.8560 C.3    64  ILE64       0.0001
     42  N         50.2050   27.2530   22.3000 N.3   100  LEU100     -0.1245
     43  CA        50.9380   26.5340   21.2650 C.3   100  LEU100      0.1561
     44  C         52.3620   26.4450   21.8000 C.2   100  LEU100      0.2260
     45  O         53.0460   27.4520   21.9350 O.2   100  LEU100     -0.2867
     46  CB        50.8750   27.2740   19.9140 C.3   100  LEU100      0.0270
     47  CG        51.5520   26.5900   18.7080 C.3   100  LEU100      0.0019
     48  CD1       53.0980   26.6080   18.8090 C.3   100  LEU100      0.0001
     49  CD2       51.0420   25.1940   18.5950 C.3   100  LEU100      0.0001
     50  N         56.1930   24.0130   22.1880 N.3   102  TYR102     -0.1241
     51  CA        57.1240   23.0820   21.5810 C.3   102  TYR102      0.1605
     52  C         57.5960   22.2830   22.7910 C.2   102  TYR102      0.2264
     53  O         57.7410   22.8230   23.8910 O.2   102  TYR102     -0.2867
     54  CB        58.2540   23.8180   20.8590 C.3   102  TYR102      0.0534
     55  CG        57.8410   24.1990   19.4510 C.ar  102  TYR102     -0.0201
     56  CD1       57.9030   23.2720   18.4080 C.ar  102  TYR102     -0.0009
     57  CD2       57.3170   25.4610   19.1750 C.ar  102  TYR102     -0.0009
     58  CE1       57.4520   23.5930   17.1240 C.ar  102  TYR102      0.0417
     59  CE2       56.8630   25.7930   17.8950 C.ar  102  TYR102      0.0417
     60  CZ        56.9350   24.8550   16.8760 C.ar  102  TYR102      0.1957
     61  OH        56.5090   25.1850   15.6050 O.3   102  TYR102     -0.2866
     62  N         48.5670   22.6620   23.0970 N.3   127  LEU127     -0.1245
     63  CA        48.9540   21.8870   21.9050 C.3   127  LEU127      0.1561
     64  C         50.4610   21.9030   21.8750 C.2   127  LEU127      0.2260
     65  O         51.0530   22.9660   21.8430 O.2   127  LEU127     -0.2867
     66  CB        48.3740   22.5460   20.6400 C.3   127  LEU127      0.0270
     67  CG        48.8730   21.8980   19.3370 C.3   127  LEU127      0.0019
     68  CD1       48.7520   20.3810   19.3230 C.3   127  LEU127      0.0001
     69  CD2       48.0540   22.5340   18.1880 C.3   127  LEU127      0.0001
     70  N         53.3680   21.0730   19.6360 N.3   129  ALA129     -0.1245
     71  CA        53.4640   20.8210   18.2090 C.3   129  ALA129      0.1562
     72  C         54.3010   19.6320   17.7760 C.2   129  ALA129      0.2260
     73  O         53.9680   19.0170   16.7430 O.2   129  ALA129     -0.2867
     74  CB        53.9400   22.1010   17.5030 C.3   129  ALA129      0.0290
     75  N         46.6110   17.0100   17.0030 N.3   153  ILE153     -0.1245
     76  CA        46.4290   17.3520   15.6060 C.3   153  ILE153      0.1561
     77  C         46.0260   16.0800   14.8570 C.2   153  ILE153      0.2260
     78  O         46.6430   15.0230   15.0060 O.2   153  ILE153     -0.2867
     79  CB        47.7760   17.9120   14.9940 C.3   153  ILE153      0.0252
     80  CG1       48.0180   19.3590   15.4750 C.3   153  ILE153      0.0019
     81  CG2       47.7220   17.9310   13.4400 C.3   153  ILE153      0.0019
     82  CD1       49.3960   19.9670   15.1090 C.3   153  ILE153      0.0001
     83  N         42.3170   19.5210   16.8170 N.3   175  TYR175     -0.1241
     84  CA        42.9450   20.3770   15.8200 C.3   175  TYR175      0.1605
     85  C         42.9410   19.6480   14.4840 C.2   175  TYR175      0.2264
     86  O         43.6930   18.6920   14.2880 O.2   175  TYR175     -0.2867
     87  CB        44.3840   20.7150   16.2270 C.3   175  TYR175      0.0534
     88  CG        44.9740   21.8790   15.4560 C.ar  175  TYR175     -0.0201
     89  CD1       45.2220   21.7810   14.0870 C.ar  175  TYR175     -0.0009
     90  CD2       45.2560   23.0900   16.0900 C.ar  175  TYR175     -0.0009
     91  CE1       45.7300   22.8580   13.3650 C.ar  175  TYR175      0.0417
     92  CE2       45.7640   24.1730   15.3780 C.ar  175  TYR175      0.0417
     93  CZ        45.9960   24.0490   14.0150 C.ar  175  TYR175      0.1957
     94  OH        46.4730   25.1180   13.2980 O.3   175  TYR175     -0.2866
     95  N         52.8890   26.0330    9.0910 N.3   183  THR183     -0.1203
     96  CA        51.9240   27.1340    9.1070 C.3   183  THR183      0.1994
     97  C         52.2380   28.1660    8.0140 C.2   183  THR183      0.2618
     98  O         53.3970   28.3360    7.6200 O.2   183  THR183     -0.2717
     99  CB        51.9190   27.8570   10.4840 C.3   183  THR183      0.1784
    100  OG1       53.2150   28.4330   10.7410 O.3   183  THR183     -0.2211
    101  CG2       51.5600   26.8950   11.5980 C.3   183  THR183      0.0376
    102  N         51.1870   28.8100    7.5010 N.am  184  GLY184     -0.1942
    103  CA        51.3960   29.8800    6.5060 C.3   184  GLY184      0.2014
    104  C         50.1390   30.2580    5.7630 C.2   184  GLY184      0.2638
    105  O         49.4600   29.3690    5.2820 O.2   184  GLY184     -0.2714
    106  N         49.8310   31.5490    5.6730 N.am  185  ALA185     -0.1977
    107  CA        48.6490   32.0280    4.9810 C.3   185  ALA185      0.1597
    108  C         48.7960   31.8790    3.4650 C.2   185  ALA185      0.2287
    109  O         47.8030   31.7930    2.7490 O.2   185  ALA185     -0.2864
    110  CB        48.3980   33.5210    5.3440 C.3   185  ALA185      0.0319
    111  N         45.5680   25.9520    9.6920 N.3   212  PHE212     -0.1227
    112  CA        46.6180   25.9730    8.6690 C.3   212  PHE212      0.1736
    113  C         46.0790   26.5400    7.3590 C.2   212  PHE212      0.2596
    114  O         45.1730   25.9700    6.7470 O.2   212  PHE212     -0.2718
    115  CB        47.2070   24.5760    8.4100 C.3   212  PHE212      0.0547
    116  CG        48.3570   24.2130    9.3150 C.ar  212  PHE212     -0.0202
    117  CD1       48.2550   24.3690   10.6920 C.ar  212  PHE212     -0.0042
    118  CD2       49.5320   23.6760    8.7870 C.ar  212  PHE212     -0.0042
    119  CE1       49.3010   23.9940   11.5350 C.ar  212  PHE212     -0.0003
    120  CE2       50.5860   23.2970    9.6210 C.ar  212  PHE212     -0.0003
    121  CZ        50.4680   23.4570   11.0010 C.ar  212  PHE212     -0.0000
    122  N         46.6350   27.6840    6.9640 N.am  213  GLY213     -0.1942
    123  CA        46.2630   28.3160    5.6790 C.3   213  GLY213      0.2014
    124  C         44.9300   29.0550    5.6660 C.2   213  GLY213      0.2638
    125  O         44.5230   29.5100    4.5830 O.2   213  GLY213     -0.2714
    126  N         44.2380   29.1660    6.8020 N.am  214  ILE214     -0.1977
    127  CA        42.9230   29.8750    6.8190 C.3   214  ILE214      0.1596
    128  C         43.1920   31.3890    6.8960 C.2   214  ILE214      0.2287
    129  O         43.6640   31.9060    7.9490 O.2   214  ILE214     -0.2864
    130  CB        42.0740   29.4810    8.0640 C.3   214  ILE214      0.0276
    131  CG1       41.8700   27.9590    8.1230 C.3   214  ILE214      0.0022
    132  CG2       40.7050   30.2330    8.0310 C.3   214  ILE214      0.0022
    133  CD1       41.0300   27.4250    7.0040 C.3   214  ILE214      0.0001
    134  N         40.6550   28.2790   12.8160 N.3   232  ILE232     -0.1231
    135  CA        41.7690   29.0040   13.4250 C.3   232  ILE232      0.1692
    136  C         42.5620   29.7200   12.3530 C.2   232  ILE232      0.2593
    137  O         42.7930   29.1870   11.2860 O.2   232  ILE232     -0.2718
    138  CB        42.7340   27.9960   14.1200 C.3   232  ILE232      0.0266
    139  CG1       42.0400   27.2980   15.2690 C.3   232  ILE232      0.0019
    140  CG2       43.9620   28.7480   14.6680 C.3   232  ILE232      0.0020
    141  CD1       42.7170   25.9020   15.6150 C.3   232  ILE232      0.0001
    142  N         42.9780   30.9650   12.6330 N.am  233  SER233     -0.1938
    143  CA        43.8130   31.7200   11.6860 C.3   233  SER233      0.2055
    144  C         44.9600   32.3250   12.4510 C.2   233  SER233      0.2644
    145  O         44.7340   33.0500   13.4510 O.2   233  SER233     -0.2714
    146  CB        42.9980   32.8670   11.0220 C.3   233  SER233      0.2130
    147  OG        43.8170   33.6500   10.1460 O.3   233  SER233     -0.2179
    148  N         46.1950   31.9820   12.0250 N.am  234  GLY234     -0.1939
    149  CA        47.3700   32.5330   12.7180 C.3   234  GLY234      0.2014
    150  C         48.2030   33.4280   11.8400 C.2   234  GLY234      0.2640
    151  O         48.2790   34.6480   12.1040 O.2   234  GLY234     -0.2714
    152  N         48.8360   32.8420   10.8280 N.am  235  SER235     -0.1935
    153  CA        49.7180   33.6060    9.9340 C.3   235  SER235      0.2055
    154  C         49.0230   34.8480    9.3610 C.2   235  SER235      0.2642
    155  O         49.6700   35.8910    9.3010 O.2   235  SER235     -0.2714
    156  CB        50.2330   32.7090    8.8060 C.3   235  SER235      0.2130
    157  OG        51.1260   31.7300    9.3190 O.3   235  SER235     -0.2179
    158  N         47.7480   34.7710    8.9980 N.am  236  ALA236     -0.1977
    159  CA        47.0630   35.9740    8.4330 C.3   236  ALA236      0.1597
    160  C         46.9810   37.0920    9.4570 C.2   236  ALA236      0.2287
    161  O         47.1070   38.2800    9.1150 O.2   236  ALA236     -0.2864
    162  CB        45.6610   35.6000    7.9360 C.3   236  ALA236      0.0319
@<TRIPOS>BOND
     1   109   108    2
     2   108   107    1
     3   125   124    2
     4   107   110    1
     5   107   106    1
     6   105   104    2
     7   124   123    1
     8   124   126   am
     9   106   104   am
    10   123   122    1
    11   104   103    1
    12   103   102    1
    13   114   113    2
    14   126   127    1
    15   127   128    1
    16   127   130    1
    17   128   129    2
    18   122   113   am
    19   133   131    1
    20   113   112    1
    21   102    97   am
    22    98    97    2
    23   162   159    1
    24    97    96    1
    25   132   130    1
    26   130   131    1
    27   115   112    1
    28   115   116    1
    29   159   158    1
    30   159   160    1
    31   112   111    1
    32   118   116   ar
    33   118   120   ar
    34   156   157    1
    35   156   153    1
    36   158   154   am
    37    95    96    1
    38    96    99    1
    39   161   160    2
    40   155   154    2
    41   116   117   ar
    42   154   153    1
    43   120   121   ar
    44   153   152    1
    45    29    28    2
    46   147   146    1
    47    28    27    1
    48    99   100    1
    49    99   101    1
    50   117   119   ar
    51   152   150   am
    52   121   119   ar
    53   146   143    1
    54    34    35    1
    55   137   136    2
    56    24    23    2
    57    27    26    1
    58    27    30    1
    59   143   144    1
    60   143   142    1
    61   150   151    2
    62   150   149    1
    63    23    26   am
    64    23    22    1
    65   148   144   am
    66   148   149    1
    67   136   142   am
    68   136   135    1
    69   144   145    2
    70    22    21    1
    71    22    25    1
    72    35    38    1
    73    35    36    1
    74    30    31    1
    75   134   135    1
    76    41    39    1
    77    39    38    1
    78    38    40    1
    79    36    37    2
    80    94    93    1
    81    91    93   ar
    82    91    89   ar
    83    32    31   ar
    84   135   138    1
    85    81    79    1
    86    31    33   ar
    87    93    92   ar
    88    89    88   ar
    89   138   140    1
    90   138   139    1
    91    86    85    2
    92    85    84    1
    93    77    78    2
    94    77    76    1
    95    79    80    1
    96    79    76    1
    97    82    80    1
    98   139   141    1
    99    92    90   ar
   100    88    90   ar
   101    88    87    1
   102    61    60    1
   103    76    75    1
   104     4     3    2
   105    84    87    1
   106    84    83    1
   107     7     9   ar
   108     7     6   ar
   109     1     2    1
   110     9    11   ar
   111     5     6    1
   112     5     2    1
   113     6     8   ar
   114    73    72    2
   115     3     2    1
   116    60    58   ar
   117    60    59   ar
   118    58    56   ar
   119    19    18   ar
   120    11    10   ar
   121    74    71    1
   122     8    10   ar
   123    72    71    1
   124    59    57   ar
   125    20    18   ar
   126    18    17    1
   127    69    67    1
   128    71    70    1
   129    56    55   ar
   130    49    47    1
   131    47    48    1
   132    47    46    1
   133    57    55   ar
   134    68    67    1
   135    67    66    1
   136    16    17    1
   137    16    13    1
   138    55    54    1
   139    46    43    1
   140    15    14    2
   141    66    63    1
   142    13    12    1
   143    13    14    1
   144    54    51    1
   145    43    44    1
   146    43    42    1
   147    51    50    1
   148    51    52    1
   149    44    45    2
   150    65    64    2
   151    64    63    1
   152    63    62    1
   153    52    53    2
