@<TRIPOS>MOLECULE
tmp/1tjyA00.pdb
 140 138 0 0 0
SMALL
GASTEIGER

@<TRIPOS>ATOM
      1  N         33.6440   22.9740   32.8760 N.3    11  LYS11      -0.1245
      2  CA        33.4770   22.0270   31.7710 C.3    11  LYS11       0.1561
      3  C         34.8200   21.4380   31.3550 C.2    11  LYS11       0.2260
      4  O         34.9200   20.2540   31.0280 O.2    11  LYS11      -0.2867
      5  CB        32.8420   22.7060   30.5590 C.3    11  LYS11       0.0271
      6  CG        31.4180   23.1500   30.7520 C.3    11  LYS11       0.0035
      7  CD        30.8960   23.7480   29.4570 C.3    11  LYS11       0.0206
      8  CE        29.4860   24.2880   29.5810 C.3    11  LYS11       0.1093
      9  NZ        29.1610   25.1270   28.3810 N.3    11  LYS11      -0.1314
     10  N         37.7380   31.5120   30.3340 N.3    17  PHE17      -0.1227
     11  CA        36.4600   31.6280   31.0310 C.3    17  PHE17       0.1736
     12  C         36.4670   30.8290   32.3320 C.2    17  PHE17       0.2595
     13  O         36.0640   31.3230   33.3890 O.2    17  PHE17      -0.2718
     14  CB        35.3330   31.1350   30.1150 C.3    17  PHE17       0.0547
     15  CG        33.9730   31.1820   30.7440 C.ar   17  PHE17      -0.0202
     16  CD1       33.2100   32.3390   30.6880 C.ar   17  PHE17      -0.0042
     17  CD2       33.4530   30.0710   31.4000 C.ar   17  PHE17      -0.0042
     18  CE1       31.9580   32.3850   31.2660 C.ar   17  PHE17      -0.0003
     19  CE2       32.2050   30.1200   31.9890 C.ar   17  PHE17      -0.0003
     20  CZ        31.4530   31.2730   31.9190 C.ar   17  PHE17      -0.0000
     21  N         36.9100   29.5830   32.2440 N.am   18  PHE18      -0.1976
     22  CA        36.9150   28.6880   33.3920 C.3    18  PHE18       0.1639
     23  C         38.0190   28.9980   34.3910 C.2    18  PHE18       0.2290
     24  O         37.7870   28.9830   35.5950 O.2    18  PHE18      -0.2864
     25  CB        36.9350   27.2480   32.8900 C.3    18  PHE18       0.0560
     26  CG        35.6560   26.8750   32.2210 C.ar   18  PHE18      -0.0200
     27  CD1       34.4840   26.8800   32.9550 C.ar   18  PHE18      -0.0042
     28  CD2       35.5910   26.5980   30.8770 C.ar   18  PHE18      -0.0042
     29  CE1       33.2760   26.5840   32.3720 C.ar   18  PHE18      -0.0003
     30  CE2       34.3710   26.2970   30.2880 C.ar   18  PHE18      -0.0003
     31  CZ        33.2180   26.2940   31.0450 C.ar   18  PHE18      -0.0000
     32  N         27.0110   28.3040   35.4730 N.3    92  ASP92      -0.1239
     33  CA        27.2750   28.4310   34.0410 C.3    92  ASP92       0.1674
     34  C         26.3330   27.5410   33.2210 C.2    92  ASP92       0.2266
     35  O         25.3890   28.0410   32.6170 O.2    92  ASP92      -0.2867
     36  CB        28.7720   28.2020   33.7580 C.3    92  ASP92       0.1410
     37  CG        29.1120   28.2160   32.3000 C.2    92  ASP92       0.3668
     38  OD1       28.6470   29.1310   31.5810 O.co2  92  ASP92      -0.2456
     39  OD2       29.8750   27.3660   31.8050 O.co2  92  ASP92      -0.2456
     40  N         24.2230   33.0750   34.7890 N.3   106  GLN106     -0.1245
     41  CA        24.5420   34.3530   34.1570 C.3   106  GLN106      0.1566
     42  C         23.3480   35.0700   33.5260 C.2   106  GLN106      0.2260
     43  O         23.3960   36.2790   33.3480 O.2   106  GLN106     -0.2867
     44  CB        25.6240   34.1650   33.0880 C.3   106  GLN106      0.0367
     45  CG        25.3250   33.0910   32.0330 C.3   106  GLN106      0.0905
     46  CD        25.9600   31.7390   32.3720 C.2   106  GLN106      0.2608
     47  OE1       25.9780   31.3380   33.5350 O.2   106  GLN106     -0.2717
     48  NE2       26.5010   31.0530   31.3690 N.am  106  GLN106     -0.0878
     49  N         23.6790   24.6960   28.6140 N.3   142  ASP142     -0.1225
     50  CA        23.4960   26.1390   28.5300 C.3   142  ASP142      0.1805
     51  C         23.3670   26.6530   27.1050 C.2   142  ASP142      0.2597
     52  O         22.3950   27.3340   26.7710 O.2   142  ASP142     -0.2718
     53  CB        24.5690   26.9200   29.3170 C.3   142  ASP142      0.1424
     54  CG        26.0130   26.6660   28.8700 C.2   142  ASP142      0.3668
     55  OD1       26.3290   25.7300   28.1160 O.co2 142  ASP142     -0.2456
     56  OD2       26.9250   27.4040   29.3010 O.co2 142  ASP142     -0.2456
     57  N         24.3070   26.2870   26.2500 N.am  143  GLN143     -0.1979
     58  CA        24.3670   26.9050   24.9410 C.3   143  GLN143      0.1601
     59  C         23.1660   26.4930   24.1100 C.2   143  GLN143      0.2287
     60  O         22.6610   27.2790   23.3220 O.2   143  GLN143     -0.2864
     61  CB        25.6800   26.5660   24.2520 C.3   143  GLN143      0.0394
     62  CG        26.8670   27.1900   24.9700 C.3   143  GLN143      0.0908
     63  CD        28.1910   26.7300   24.4470 C.2   143  GLN143      0.2608
     64  OE1       28.2610   26.1200   23.3920 O.2   143  GLN143     -0.2717
     65  NE2       29.2500   27.0070   25.1960 N.am  143  GLN143     -0.0878
     66  N         20.1770   28.6470   25.1370 N.3   146  TRP146     -0.1241
     67  CA        20.2840   30.0040   24.5940 C.3   146  TRP146      0.1605
     68  C         20.0190   30.0400   23.0950 C.2   146  TRP146      0.2264
     69  O         19.3720   30.9520   22.5920 O.2   146  TRP146     -0.2867
     70  CB        21.6640   30.6020   24.8360 C.3   146  TRP146      0.0550
     71  CG        22.1540   30.5060   26.2170 C.ar  146  TRP146      0.0003
     72  CD1       21.4190   30.3850   27.3530 C.ar  146  TRP146      0.0946
     73  CD2       23.5200   30.4990   26.6160 C.ar  146  TRP146      0.0152
     74  NE1       22.2520   30.3040   28.4420 N.ar  146  TRP146     -0.2442
     75  CE2       23.5500   30.3670   28.0150 C.ar  146  TRP146      0.0810
     76  CE3       24.7360   30.5770   25.9270 C.ar  146  TRP146      0.0012
     77  CZ2       24.7390   30.3330   28.7400 C.ar  146  TRP146      0.0191
     78  CZ3       25.9200   30.5340   26.6470 C.ar  146  TRP146      0.0001
     79  CH2       25.9110   30.4150   28.0380 C.ar  146  TRP146      0.0015
     80  N         34.7010   22.7270   22.2230 N.3   171  ASN171     -0.1240
     81  CA        35.6540   23.3820   23.1310 C.3   171  ASN171      0.1653
     82  C         37.1000   22.9760   22.8940 C.2   171  ASN171      0.2266
     83  O         37.9070   22.9160   23.8240 O.2   171  ASN171     -0.2867
     84  CB        35.2620   23.1600   24.5940 C.3   171  ASN171      0.1155
     85  CG        34.0360   23.9280   24.9620 C.2   171  ASN171      0.2627
     86  OD1       33.9960   25.1560   24.8410 O.2   171  ASN171     -0.2716
     87  ND2       33.0180   23.2250   25.3730 N.am  171  ASN171     -0.0877
     88  N         28.0580   31.5400   20.5020 N.3   196  PRO196     -0.2102
     89  CA        27.8900   31.6040   21.9590 C.3   196  PRO196      0.1504
     90  C         28.7140   30.5540   22.7080 C.2   196  PRO196      0.2576
     91  O         28.1810   29.7460   23.4680 O.2   196  PRO196     -0.2718
     92  CB        26.3940   31.3460   22.1280 C.3   196  PRO196      0.0282
     93  CG        26.0870   30.4100   21.0190 C.3   196  PRO196      0.0208
     94  CD        26.9030   30.8940   19.8520 C.3   196  PRO196      0.0893
     95  N         30.0200   30.5930   22.5110 N.am  197  ASP197     -0.1960
     96  CA        30.9320   29.6620   23.1610 C.3   197  ASP197      0.1840
     97  C         32.3160   30.2730   23.1970 C.2   197  ASP197      0.2621
     98  O         32.7880   30.8320   22.2040 O.2   197  ASP197     -0.2715
     99  CB        30.9770   28.3280   22.4290 C.3   197  ASP197      0.1450
    100  CG        32.0670   27.4250   22.9560 C.2   197  ASP197      0.3671
    101  OD1       31.8720   26.8140   24.0330 O.co2 197  ASP197     -0.2456
    102  OD2       33.1730   27.3030   22.3830 O.co2 197  ASP197     -0.2456
    103  N         32.9830   30.1180   24.3340 N.am  198  ALA198     -0.1977
    104  CA        34.2270   30.8300   24.6020 C.3   198  ALA198      0.1597
    105  C         35.3670   30.4500   23.6600 C.2   198  ALA198      0.2287
    106  O         36.2630   31.2590   23.4500 O.2   198  ALA198     -0.2864
    107  CB        34.6570   30.6160   26.0470 C.3   198  ALA198      0.0319
    108  N         29.9210   34.9110   22.6330 N.3   221  PHE221     -0.1241
    109  CA        30.2840   35.0090   24.0410 C.3   221  PHE221      0.1605
    110  C         31.6910   34.4550   24.2480 C.2   221  PHE221      0.2264
    111  O         31.9690   33.3100   23.8840 O.2   221  PHE221     -0.2867
    112  CB        29.3370   34.1830   24.9190 C.3   221  PHE221      0.0534
    113  CG        27.8910   34.6350   24.9300 C.ar  221  PHE221     -0.0203
    114  CD1       27.5100   35.9630   24.7610 C.ar  221  PHE221     -0.0042
    115  CD2       26.9040   33.7000   25.1780 C.ar  221  PHE221     -0.0042
    116  CE1       26.1760   36.3270   24.8230 C.ar  221  PHE221     -0.0003
    117  CE2       25.5710   34.0610   25.2430 C.ar  221  PHE221     -0.0003
    118  CZ        25.2050   35.3720   25.0560 C.ar  221  PHE221     -0.0000
    119  N         29.4550   38.9580   27.4250 N.3   241  LEU241     -0.1231
    120  CA        29.6490   38.0090   28.5040 C.3   241  LEU241      0.1693
    121  C         29.0220   38.6080   29.7660 C.2   241  LEU241      0.2592
    122  O         27.9360   39.1880   29.7190 O.2   241  LEU241     -0.2718
    123  CB        31.1340   37.6210   28.6760 C.3   241  LEU241      0.0284
    124  CG        31.3700   36.2590   29.3560 C.3   241  LEU241      0.0019
    125  CD1       31.1130   35.1160   28.3970 C.3   241  LEU241      0.0001
    126  CD2       32.7690   36.1750   29.9340 C.3   241  LEU241      0.0001
    127  N         29.7110   38.4460   30.8810 N.am  242  TRP242     -0.1976
    128  CA        29.2440   38.7940   32.2090 C.3   242  TRP242      0.1640
    129  C         30.4990   38.6260   33.0690 C.2   242  TRP242      0.2290
    130  O         31.5260   38.1220   32.5970 O.2   242  TRP242     -0.2864
    131  CB        28.1060   37.8590   32.6740 C.3   242  TRP242      0.0576
    132  CG        28.4210   36.3850   32.4630 C.ar  242  TRP242      0.0006
    133  CD1       29.0780   35.5630   33.3250 C.ar  242  TRP242      0.0946
    134  CD2       28.1280   35.5900   31.3000 C.ar  242  TRP242      0.0152
    135  NE1       29.2160   34.3090   32.7790 N.ar  242  TRP242     -0.2442
    136  CE2       28.6420   34.2970   31.5360 C.ar  242  TRP242      0.0810
    137  CE3       27.4730   35.8340   30.0850 C.ar  242  TRP242      0.0012
    138  CZ2       28.5320   33.2630   30.6050 C.ar  242  TRP242      0.0191
    139  CZ3       27.3740   34.8080   29.1600 C.ar  242  TRP242      0.0001
    140  CH2       27.8970   33.5380   29.4280 C.ar  242  TRP242      0.0015
@<TRIPOS>BOND
     1    94    88    1
     2    94    93    1
     3    88    89    1
     4    93    92    1
     5    89    92    1
     6    89    90    1
     7    98    97    2
     8    80    81    1
     9   102   100   ar
    10    99   100    1
    11    99    96    1
    12    95    90   am
    13    95    96    1
    14    69    68    2
    15   108   109    1
    16    90    91    2
    17    82    81    1
    18    82    83    2
    19   100   101   ar
    20    68    67    1
    21    81    84    1
    22    96    97    1
    23    97   103   am
    24    60    59    2
    25    64    63    2
    26   106   105    2
    27   105   104    1
    28   111   110    2
    29   109   110    1
    30   109   112    1
    31    59    58    1
    32    61    58    1
    33    61    62    1
    34   103   104    1
    35    63    62    1
    36    63    65   am
    37    67    70    1
    38    67    66    1
    39    84    85    1
    40   104   107    1
    41   114   116   ar
    42   114   113   ar
    43   116   118   ar
    44    70    71    1
    45    86    85    2
    46   112   113    1
    47   113   115   ar
    48    58    57    1
    49    85    87   am
    50   118   117   ar
    51   115   117   ar
    52    76    73   ar
    53    76    78   ar
    54    71    73   ar
    55    71    72   ar
    56    57    51   am
    57    73    75   ar
    58    78    79   ar
    59    52    51    2
    60    51    50    1
    61    72    74   ar
    62   119   120    1
    63    75    74   ar
    64    75    77   ar
    65    79    77   ar
    66    55    54   ar
    67     9     8    1
    68   125   124    1
    69   120   123    1
    70   120   121    1
    71    50    49    1
    72    50    53    1
    73   123   124    1
    74    54    56   ar
    75    54    53    1
    76   139   140   ar
    77   139   137   ar
    78   124   126    1
    79   140   138   ar
    80     7     8    1
    81     7     6    1
    82   122   121    2
    83   121   127   am
    84   137   134   ar
    85    14    15    1
    86    14    11    1
    87    30    28   ar
    88    30    31   ar
    89    10    11    1
    90     5     6    1
    91     5     2    1
    92   138   136   ar
    93    16    15   ar
    94    16    18   ar
    95    15    17   ar
    96    28    26   ar
    97   127   128    1
    98     4     3    2
    99    11    12    1
   100    31    29   ar
   101    18    20   ar
   102   134   136   ar
   103   134   132   ar
   104     3     2    1
   105    48    46   am
   106    17    19   ar
   107   136   135   ar
   108    38    37   ar
   109     2     1    1
   110    39    37   ar
   111    20    19   ar
   112    45    46    1
   113    45    44    1
   114   128   131    1
   115   128   129    1
   116    26    25    1
   117    26    27   ar
   118    21    12   am
   119    21    22    1
   120    37    36    1
   121    12    13    2
   122    29    27   ar
   123    46    47    2
   124   132   131    1
   125   132   133   ar
   126   130   129    2
   127    35    34    2
   128   135   133   ar
   129    25    22    1
   130    44    41    1
   131    34    33    1
   132    43    42    2
   133    22    23    1
   134    42    41    1
   135    36    33    1
   136    33    32    1
   137    41    40    1
   138    23    24    2
