@<TRIPOS>MOLECULE
tmp/1tk0C00.pdb
 165 158 0 0 0
SMALL
GASTEIGER

@<TRIPOS>ATOM
      1  N         54.0760   86.4320   46.6410 N.3   417  ARG417     -0.1245
      2  CA        54.1280   85.5160   47.7650 C.3   417  ARG417      0.1563
      3  C         55.4860   84.8430   47.6960 C.2   417  ARG417      0.2260
      4  O         56.1750   84.9200   46.6830 O.2   417  ARG417     -0.2867
      5  CB        53.0660   84.4210   47.6450 C.3   417  ARG417      0.0307
      6  CG        51.7300   84.7400   48.2650 C.3   417  ARG417      0.0489
      7  CD        50.8970   83.4760   48.3300 C.3   417  ARG417      0.2205
      8  NE        49.6500   83.6610   49.0630 N.pl3 417  ARG417     -0.0865
      9  CZ        48.8840   82.6540   49.4710 C.cat 417  ARG417      0.5346
     10  NH1       49.2420   81.4040   49.2190 N.pl3 417  ARG417      0.1354
     11  NH2       47.7660   82.8950   50.1310 N.pl3 417  ARG417      0.1354
     12  N         48.6610   85.2630   63.0530 N.3   463  ASP463     -0.1225
     13  CA        48.1190   85.1160   61.7070 C.3   463  ASP463      0.1805
     14  C         47.1770   86.2740   61.3810 C.2   463  ASP463      0.2598
     15  O         46.3530   86.6660   62.2100 O.2   463  ASP463     -0.2718
     16  CB        47.3760   83.7790   61.5990 C.3   463  ASP463      0.1424
     17  CG        46.9860   83.4370   60.1730 C.2   463  ASP463      0.3668
     18  OD1       46.2870   84.2510   59.5350 O.co2 463  ASP463     -0.2456
     19  OD2       47.3720   82.3510   59.6860 O.co2 463  ASP463     -0.2456
     20  N         47.3170   86.8270   60.1810 N.am  464  ALA464     -0.1966
     21  CA        46.4750   87.9320   59.7420 C.3   464  ALA464      0.1728
     22  C         45.0310   87.4500   59.5890 C.2   464  ALA464      0.2617
     23  O         44.7730   86.4420   58.9340 O.2   464  ALA464     -0.2715
     24  CB        46.9940   88.4880   58.4110 C.3   464  ALA464      0.0334
     25  N         44.0920   88.1830   60.1790 N.am  465  SER465     -0.1936
     26  CA        42.6750   87.8080   60.1290 C.3   465  SER465      0.2055
     27  C         41.9750   88.0710   58.7940 C.2   465  SER465      0.2644
     28  O         42.0000   89.1890   58.2920 O.2   465  SER465     -0.2714
     29  CB        41.9210   88.5430   61.2360 C.3   465  SER465      0.2130
     30  OG        42.5880   88.3990   62.4710 O.3   465  SER465     -0.2179
     31  N         41.3490   87.0300   58.2450 N.am  466  GLY466     -0.1939
     32  CA        40.6170   87.1230   56.9850 C.3   466  GLY466      0.2014
     33  C         41.2850   87.9880   55.9380 C.2   466  GLY466      0.2639
     34  O         40.6280   88.7310   55.2120 O.2   466  GLY466     -0.2714
     35  N         42.6010   87.8650   55.8520 N.am  467  LEU467     -0.1963
     36  CA        43.4140   88.6590   54.9430 C.3   467  LEU467      0.1728
     37  C         42.8620   89.0110   53.5650 C.2   467  LEU467      0.2616
     38  O         42.6060   90.1810   53.2780 O.2   467  LEU467     -0.2715
     39  CB        44.7860   88.0070   54.7650 C.3   467  LEU467      0.0311
     40  CG        45.7310   88.7730   53.8380 C.3   467  LEU467      0.0022
     41  CD1       46.0880   90.1130   54.4570 C.3   467  LEU467      0.0001
     42  CD2       46.9780   87.9400   53.5850 C.3   467  LEU467      0.0001
     43  N         42.6700   88.0220   52.7030 N.am  468  GLU468     -0.1977
     44  CA        42.2200   88.3600   51.3670 C.3   468  GLU468      0.1602
     45  C         40.8010   88.8910   51.2310 C.2   468  GLU468      0.2287
     46  O         40.4980   89.5730   50.2550 O.2   468  GLU468     -0.2864
     47  CB        42.5280   87.2080   50.3990 C.3   468  GLU468      0.0415
     48  CG        43.9580   87.3750   49.8210 C.3   468  GLU468      0.1163
     49  CD        44.5520   86.1110   49.2100 C.2   468  GLU468      0.3649
     50  OE1       43.9370   85.5480   48.2810 O.co2 468  GLU468     -0.2457
     51  OE2       45.6440   85.6880   49.6570 O.co2 468  GLU468     -0.2457
     52  N         33.5690   87.4730   63.4540 N.3   492  ASP492     -0.1239
     53  CA        34.4550   86.8150   62.4950 C.3   492  ASP492      0.1674
     54  C         33.7680   86.5190   61.1590 C.2   492  ASP492      0.2266
     55  O         32.7620   85.8120   61.1050 O.2   492  ASP492     -0.2867
     56  CB        35.0020   85.5120   63.0650 C.3   492  ASP492      0.1410
     57  CG        35.9300   84.8150   62.0980 C.2   492  ASP492      0.3668
     58  OD1       37.0130   85.3730   61.8250 O.co2 492  ASP492     -0.2456
     59  OD2       35.5730   83.7250   61.5990 O.co2 492  ASP492     -0.2456
     60  N         34.6590   84.5860   58.5450 N.3   494  HIS494     -0.1241
     61  CA        34.5900   83.1940   58.1120 C.3   494  HIS494      0.1621
     62  C         33.5740   82.3910   58.9110 C.2   494  HIS494      0.2264
     63  O         32.9190   81.4990   58.3720 O.2   494  HIS494     -0.2867
     64  CB        35.9750   82.5450   58.1740 C.3   494  HIS494      0.0745
     65  CG        36.9290   83.0870   57.1540 C.ar  494  HIS494      0.0817
     66  ND1       36.6580   83.0740   55.8040 N.ar  494  HIS494     -0.2268
     67  CD2       38.1390   83.6810   57.2880 C.ar  494  HIS494      0.1154
     68  CE1       37.6570   83.6380   55.1500 C.ar  494  HIS494      0.1986
     69  NE2       38.5680   84.0150   56.0270 N.ar  494  HIS494     -0.2212
     70  N         34.7060   75.8300   60.0820 N.3   506  ARG506     -0.1245
     71  CA        35.1440   77.1890   59.7850 C.3   506  ARG506      0.1563
     72  C         36.1520   77.1630   58.6470 C.2   506  ARG506      0.2260
     73  O         36.2330   78.1080   57.8580 O.2   506  ARG506     -0.2867
     74  CB        35.7840   77.8340   61.0200 C.3   506  ARG506      0.0307
     75  CG        36.3220   79.2430   60.7700 C.3   506  ARG506      0.0489
     76  CD        36.8880   79.8800   62.0450 C.3   506  ARG506      0.2205
     77  NE        37.3260   81.2620   61.8310 N.pl3 506  ARG506     -0.0865
     78  CZ        38.3820   81.6120   61.1010 C.cat 506  ARG506      0.5346
     79  NH1       39.1220   80.6840   60.5090 N.pl3 506  ARG506      0.1354
     80  NH2       38.6980   82.8920   60.9570 N.pl3 506  ARG506      0.1354
     81  N         36.1630   78.8920   54.5950 N.3   510  LYS510     -0.1231
     82  CA        37.2650   79.6370   53.9900 C.3   510  LYS510      0.1693
     83  C         37.5500   79.1100   52.5910 C.2   510  LYS510      0.2592
     84  O         37.6670   79.8810   51.6370 O.2   510  LYS510     -0.2718
     85  CB        38.5200   79.5230   54.8610 C.3   510  LYS510      0.0285
     86  CG        38.4150   80.3060   56.1540 C.3   510  LYS510      0.0035
     87  CD        39.4700   79.8960   57.1650 C.3   510  LYS510      0.0206
     88  CE        40.8760   80.1060   56.6500 C.3   510  LYS510      0.1093
     89  NZ        41.8590   79.8970   57.7510 N.3   510  LYS510     -0.1314
     90  N         37.6620   77.7910   52.4760 N.am  511  THR511     -0.1953
     91  CA        37.9200   77.1700   51.1860 C.3   511  THR511      0.1897
     92  C         36.7600   77.4980   50.2430 C.2   511  THR511      0.2313
     93  O         36.9540   77.6770   49.0390 O.2   511  THR511     -0.2863
     94  CB        38.1010   75.6370   51.3290 C.3   511  THR511      0.1794
     95  OG1       38.2500   75.0540   50.0320 O.3   511  THR511     -0.2208
     96  CG2       36.9140   75.0080   52.0230 C.3   511  THR511      0.0378
     97  N         36.8140   81.5490   49.3340 N.3   514  TYR514     -0.1241
     98  CA        37.8910   81.8760   48.4050 C.3   514  TYR514      0.1605
     99  C         37.7630   81.1380   47.0840 C.2   514  TYR514      0.2264
    100  O         38.2500   81.6060   46.0560 O.2   514  TYR514     -0.2867
    101  CB        39.2590   81.6220   49.0470 C.3   514  TYR514      0.0534
    102  CG        39.6270   82.6770   50.0740 C.ar  514  TYR514     -0.0201
    103  CD1       39.7320   84.0260   49.7130 C.ar  514  TYR514     -0.0009
    104  CD2       39.8300   82.3370   51.4120 C.ar  514  TYR514     -0.0009
    105  CE1       40.0290   85.0100   50.6650 C.ar  514  TYR514      0.0417
    106  CE2       40.1250   83.3080   52.3690 C.ar  514  TYR514      0.0417
    107  CZ        40.2230   84.6400   51.9930 C.ar  514  TYR514      0.1957
    108  OH        40.5150   85.5880   52.9500 O.3   514  TYR514     -0.2866
    109  N         37.2660   83.5210   43.7700 N.3   518  TYR518     -0.1241
    110  CA        38.1960   83.4080   42.6550 C.3   518  TYR518      0.1605
    111  C         37.7860   82.5630   41.4330 C.2   518  TYR518      0.2264
    112  O         38.6260   81.9060   40.8150 O.2   518  TYR518     -0.2867
    113  CB        39.5590   82.9560   43.1870 C.3   518  TYR518      0.0534
    114  CG        40.1430   83.9150   44.2100 C.ar  518  TYR518     -0.0201
    115  CD1       40.2540   85.2780   43.9320 C.ar  518  TYR518     -0.0009
    116  CD2       40.5990   83.4580   45.4480 C.ar  518  TYR518     -0.0009
    117  CE1       40.8080   86.1650   44.8590 C.ar  518  TYR518      0.0417
    118  CE2       41.1530   84.3350   46.3830 C.ar  518  TYR518      0.0417
    119  CZ        41.2560   85.6860   46.0810 C.ar  518  TYR518      0.1957
    120  OH        41.8110   86.5480   46.9960 O.3   518  TYR518     -0.2866
    121  N         42.2560   87.2320   41.4370 N.3   593  ASN593     -0.1240
    122  CA        43.0880   86.5230   42.3970 C.3   593  ASN593      0.1653
    123  C         44.4760   87.1490   42.4130 C.2   593  ASN593      0.2266
    124  O         45.0830   87.3190   43.4690 O.2   593  ASN593     -0.2867
    125  CB        43.1720   85.0370   42.0500 C.3   593  ASN593      0.1155
    126  CG        44.0900   84.2830   42.9810 C.2   593  ASN593      0.2627
    127  OD1       45.3040   84.2080   42.7560 O.2   593  ASN593     -0.2716
    128  ND2       43.5210   83.7350   44.0530 N.am  593  ASN593     -0.0877
    129  N         45.5540   88.2960   45.9390 N.3   597  GLN597     -0.1245
    130  CA        46.6280   87.5010   46.5240 C.3   597  GLN597      0.1566
    131  C         47.9100   88.3280   46.6120 C.2   597  GLN597      0.2260
    132  O         48.6790   88.1740   47.5510 O.2   597  GLN597     -0.2867
    133  CB        46.8930   86.2300   45.7090 C.3   597  GLN597      0.0367
    134  CG        47.7300   85.1870   46.4720 C.3   597  GLN597      0.0905
    135  CD        48.2580   84.0680   45.5860 C.2   597  GLN597      0.2608
    136  OE1       49.3440   84.1720   45.0040 O.2   597  GLN597     -0.2717
    137  NE2       47.4840   82.9950   45.4680 N.am  597  GLN597     -0.0878
    138  N         52.9070   82.5120   54.4880 N.3   635  HIS635     -0.1226
    139  CA        51.9940   83.4360   53.8290 C.3   635  HIS635      0.1752
    140  C         51.4800   84.5680   54.7070 C.2   635  HIS635      0.2596
    141  O         51.9470   85.6960   54.5840 O.2   635  HIS635     -0.2718
    142  CB        50.8560   82.6370   53.2010 C.3   635  HIS635      0.0759
    143  CG        51.3490   81.5550   52.2960 C.ar  635  HIS635      0.0818
    144  ND1       52.1820   81.8130   51.2280 N.ar  635  HIS635     -0.2268
    145  CD2       51.2350   80.2090   52.3680 C.ar  635  HIS635      0.1154
    146  CE1       52.5670   80.6710   50.6880 C.ar  635  HIS635      0.1986
    147  NE2       52.0070   79.6820   51.3620 N.ar  635  HIS635     -0.2212
    148  N         50.5370   84.2920   55.5940 N.am  636  ASP636     -0.1974
    149  CA        50.0340   85.3580   56.4490 C.3   636  ASP636      0.1709
    150  C         50.1440   84.9840   57.9270 C.2   636  ASP636      0.2293
    151  O         49.3350   85.4110   58.7580 O.2   636  ASP636     -0.2864
    152  CB        48.5870   85.6810   56.0810 C.3   636  ASP636      0.1436
    153  CG        47.6410   84.5750   56.4570 C.2   636  ASP636      0.3671
    154  OD1       48.0750   83.4010   56.4660 O.co2 636  ASP636     -0.2456
    155  OD2       46.4660   84.8770   56.7360 O.co2 636  ASP636     -0.2456
    156  N         48.3820   77.7160   66.2550 N.3   686  HIS686     -0.1241
    157  CA        47.7690   77.9850   64.9590 C.3   686  HIS686      0.1621
    158  C         46.4750   77.2090   64.8550 C.2   686  HIS686      0.2264
    159  O         45.5100   77.7710   64.2990 O.2   686  HIS686     -0.2867
    160  CB        48.6950   77.5960   63.8010 C.3   686  HIS686      0.0745
    161  CG        48.1900   78.0260   62.4570 C.ar  686  HIS686      0.0817
    162  ND1       48.1040   79.3510   62.0830 N.ar  686  HIS686     -0.2268
    163  CD2       47.7230   77.3090   61.4050 C.ar  686  HIS686      0.1154
    164  CE1       47.6070   79.4330   60.8600 C.ar  686  HIS686      0.1986
    165  NE2       47.3670   78.2070   60.4270 N.ar  686  HIS686     -0.2212
@<TRIPOS>BOND
     1   112   111    2
     2   111   110    1
     3   121   122    1
     4   125   122    1
     5   125   126    1
     6   122   123    1
     7   123   124    2
     8   110   113    1
     9   110   109    1
    10   127   126    2
    11   126   128   am
    12   113   114    1
    13   115   114   ar
    14   115   117   ar
    15   114   116   ar
    16   117   119   ar
    17   136   135    2
    18   116   118   ar
    19   137   135   am
    20   135   134    1
    21   133   134    1
    22   133   130    1
    23   129   130    1
    24   100    99    2
    25   119   118   ar
    26   119   120    1
    27   130   131    1
    28   131   132    2
    29     1     2    1
    30     4     3    2
    31    99    98    1
    32     5     2    1
    33     5     6    1
    34     3     2    1
    35     6     7    1
    36    50    49   ar
    37     7     8    1
    38    98   101    1
    39    98    97    1
    40    93    92    2
    41   101   102    1
    42     8     9    2
    43    49    51   ar
    44    49    48    1
    45    10     9    1
    46     9    11    1
    47   103   102   ar
    48   103   105   ar
    49    48    47    1
    50    95    94    1
    51   102   104   ar
    52    92    91    1
    53    46    45    2
    54    47    44    1
    55   105   107   ar
    56   146   144   ar
    57   146   147   ar
    58    91    94    1
    59    91    90    1
    60   144   143   ar
    61    45    44    1
    62    94    96    1
    63   147   145   ar
    64    44    43    1
    65   104   106   ar
    66    84    83    2
    67   107   106   ar
    68   107   108    1
    69   143   145   ar
    70   143   142    1
    71    90    83   am
    72    83    82    1
    73    43    37   am
    74   142   139    1
    75    38    37    2
    76    37    36    1
    77    42    40    1
    78   139   138    1
    79   139   140    1
    80    40    41    1
    81    40    39    1
    82    82    81    1
    83    82    85    1
    84   141   140    2
    85   140   148   am
    86    39    36    1
    87    85    86    1
    88    36    35    1
    89    68    66   ar
    90    68    69   ar
    91    34    33    2
    92   148   149    1
    93    66    65   ar
    94    35    33   am
    95    33    32    1
    96    69    67   ar
    97   152   149    1
    98   152   153    1
    99    86    87    1
   100   149   150    1
   101   153   154   ar
   102   153   155   ar
   103    88    87    1
   104    88    89    1
   105    32    31    1
   106    65    67   ar
   107    65    64    1
   108    73    72    2
   109   150   151    2
   110    61    64    1
   111    61    60    1
   112    61    62    1
   113    31    27   am
   114    28    27    2
   115    63    62    2
   116    24    21    1
   117    72    71    1
   118    27    26    1
   119    23    22    2
   120    18    17   ar
   121    22    21    1
   122    22    25   am
   123    19    17   ar
   124    21    20    1
   125    71    70    1
   126    71    74    1
   127    26    25    1
   128    26    29    1
   129    17    16    1
   130    20    14   am
   131   165   164   ar
   132   165   163   ar
   133    79    78    1
   134    75    74    1
   135    75    76    1
   136   164   162   ar
   137    80    78    1
   138    78    77    2
   139    55    54    2
   140    54    53    1
   141    29    30    1
   142    14    13    1
   143    14    15    2
   144   163   161   ar
   145    59    57   ar
   146    16    13    1
   147    13    12    1
   148    58    57   ar
   149    77    76    1
   150   162   161   ar
   151    57    56    1
   152   161   160    1
   153    53    56    1
   154    53    52    1
   155   160   157    1
   156   159   158    2
   157   158   157    1
   158   157   156    1
