@<TRIPOS>MOLECULE
tmp/1tk2A00.pdb
 199 191 0 0 0
SMALL
GASTEIGER

@<TRIPOS>ATOM
      1  N          8.9190   24.9440   -5.8160 N.3    33  THR33      -0.1218
      2  CA        10.1330   25.4270   -6.4650 C.3    33  THR33       0.1862
      3  C         10.4510   24.6720   -7.7550 C.2    33  THR33       0.2287
      4  O         11.5180   24.8520   -8.3400 O.2    33  THR33      -0.2866
      5  CB        11.3430   25.3060   -5.4990 C.3    33  THR33       0.1770
      6  OG1       11.5250   23.9140   -5.1540 O.3    33  THR33      -0.2211
      7  CG2       11.1800   26.0310   -4.2020 C.3    33  THR33       0.0375
      8  N         16.1350   24.3120   -6.0440 N.3    60  ASN60      -0.1240
      9  CA        16.1530   24.3930   -4.5850 C.3    60  ASN60       0.1653
     10  C         16.2270   23.0310   -3.9010 C.2    60  ASN60       0.2266
     11  O         17.0820   22.7850   -3.0390 O.2    60  ASN60      -0.2867
     12  CB        14.8800   25.1040   -4.0970 C.3    60  ASN60       0.1155
     13  CG        14.8410   25.2590   -2.6130 C.2    60  ASN60       0.2627
     14  OD1       14.5770   24.3240   -1.8890 O.2    60  ASN60      -0.2716
     15  ND2       15.1550   26.4830   -2.1260 N.am   60  ASN60      -0.0877
     16  N         13.2720   21.6440   -2.5250 N.3    62  HIS62      -0.1241
     17  CA        12.0430   21.5560   -1.7600 C.3    62  HIS62       0.1621
     18  C         10.9050   20.9310   -2.5610 C.2    62  HIS62       0.2264
     19  O         10.2570   20.0060   -2.0790 O.2    62  HIS62      -0.2867
     20  CB        11.6700   22.9850   -1.3720 C.3    62  HIS62       0.0745
     21  CG        10.5500   23.0960   -0.4230 C.ar   62  HIS62       0.0817
     22  ND1        9.2610   23.3750   -0.8200 N.ar   62  HIS62      -0.2268
     23  CD2       10.5300   23.0360    0.9270 C.ar   62  HIS62       0.1154
     24  CE1        8.4860   23.4540    0.2510 C.ar   62  HIS62       0.1986
     25  NE2        9.2240   23.2320    1.3210 N.ar   62  HIS62      -0.2212
     26  N          7.7830   29.3450   -6.9950 N.3    94  LEU94      -0.1245
     27  CA         8.8300   29.8300   -6.1150 C.3    94  LEU94       0.1561
     28  C         10.1060   29.5690   -6.9000 C.2    94  LEU94       0.2260
     29  O         10.2150   28.5730   -7.6230 O.2    94  LEU94      -0.2867
     30  CB         8.9110   29.0600   -4.8110 C.3    94  LEU94       0.0270
     31  CG         7.6210   28.9110   -3.9990 C.3    94  LEU94       0.0019
     32  CD1        7.8640   28.0110   -2.8150 C.3    94  LEU94       0.0001
     33  CD2        7.0710   30.2730   -3.5770 C.3    94  LEU94       0.0001
     34  N         15.7500   30.2030   -4.7960 N.3    97  SER97      -0.1202
     35  CA        15.9910   30.7370   -3.4600 C.3    97  SER97       0.2020
     36  C         14.9160   30.3560   -2.4460 C.2    97  SER97       0.2619
     37  O         15.0900   30.5300   -1.2360 O.2    97  SER97      -0.2717
     38  CB        16.0710   32.2710   -3.5420 C.3    97  SER97       0.2103
     39  OG        14.7390   32.7900   -3.5740 O.3    97  SER97      -0.2182
     40  N         13.7800   29.8490   -2.9500 N.am   98  GLY98      -0.1942
     41  CA        12.6730   29.4630   -2.1030 C.3    98  GLY98       0.2014
     42  C         11.6170   30.5300   -1.8850 C.2    98  GLY98       0.2640
     43  O         10.6450   30.3220   -1.1480 O.2    98  GLY98      -0.2714
     44  N         11.8060   31.6750   -2.4890 N.am   99  SER99      -0.1935
     45  CA        10.8190   32.7280   -2.3420 C.3    99  SER99       0.2055
     46  C         10.0320   32.9300   -3.6280 C.2    99  SER99       0.2644
     47  O         10.4510   32.5750   -4.7150 O.2    99  SER99      -0.2714
     48  CB        11.5090   34.0200   -1.9370 C.3    99  SER99       0.2130
     49  OG        12.2850   34.5090   -2.9940 O.3    99  SER99      -0.2179
     50  N          8.8460   33.5030   -3.4840 N.am  100  GLY100     -0.1939
     51  CA         8.0190   33.8120   -4.6380 C.3   100  GLY100      0.2014
     52  C          7.1730   35.0070   -4.3010 C.2   100  GLY100      0.2640
     53  O          7.2490   35.5360   -3.1840 O.2   100  GLY100     -0.2714
     54  N          6.3820   35.4460   -5.2580 N.am  101  SER101     -0.1935
     55  CA         5.4290   36.5390   -5.0320 C.3   101  SER101      0.2055
     56  C          4.0050   36.0090   -4.9660 C.2   101  SER101      0.2642
     57  O          3.7070   34.9180   -5.4860 O.2   101  SER101     -0.2714
     58  CB         5.5050   37.5390   -6.1890 C.3   101  SER101      0.2130
     59  OG         5.0720   36.9440   -7.3910 O.3   101  SER101     -0.2179
     60  N          3.1030   36.7840   -4.3740 N.am  102  VAL102     -0.1977
     61  CA         1.7220   36.4050   -4.3750 C.3   102  VAL102      0.1596
     62  C          1.2140   36.2930   -5.8070 C.2   102  VAL102      0.2287
     63  O          0.4020   35.4430   -6.0960 O.2   102  VAL102     -0.2864
     64  CB         0.8500   37.3790   -3.5910 C.3   102  VAL102      0.0276
     65  CG1       -0.6490   37.1360   -3.8780 C.3   102  VAL102      0.0022
     66  CG2        1.1520   37.2440   -2.0870 C.3   102  VAL102      0.0022
     67  N          2.0980   32.8220   -7.2070 N.3   105  ILE105     -0.1245
     68  CA         1.2770   31.7860   -6.5980 C.3   105  ILE105      0.1561
     69  C         -0.1320   31.8270   -7.1720 C.2   105  ILE105      0.2260
     70  O         -0.7300   30.7820   -7.4690 O.2   105  ILE105     -0.2867
     71  CB         1.3350   31.8790   -5.0480 C.3   105  ILE105      0.0252
     72  CG1        2.7650   31.6160   -4.5870 C.3   105  ILE105      0.0019
     73  CG2        0.3330   30.8730   -4.3700 C.3   105  ILE105      0.0019
     74  CD1        3.0090   32.1330   -3.1870 C.3   105  ILE105      0.0001
     75  N          3.0150   23.8730   -0.3510 N.3   123  SER123     -0.1202
     76  CA         3.8170   23.6300    0.8900 C.3   123  SER123      0.2020
     77  C          4.5490   24.9380    1.0420 C.2   123  SER123      0.2619
     78  O          5.7610   24.9960    0.9120 O.2   123  SER123     -0.2717
     79  CB         4.7510   22.4600    0.6800 C.3   123  SER123      0.2103
     80  OG         4.0820   21.2220    0.8350 O.3   123  SER123     -0.2182
     81  N          3.7960   25.9820    1.3460 N.am  124  LEU124     -0.1965
     82  CA         4.2890   27.3350    1.3950 C.3   124  LEU124      0.1728
     83  C          3.3840   28.2040    2.2200 C.2   124  LEU124      0.2617
     84  O          2.2150   27.8430    2.4350 O.2   124  LEU124     -0.2715
     85  CB         4.4450   27.8990   -0.0330 C.3   124  LEU124      0.0311
     86  CG         3.1980   27.9010   -0.9240 C.3   124  LEU124      0.0022
     87  CD1        2.2750   29.0980   -0.6200 C.3   124  LEU124      0.0001
     88  CD2        3.6370   27.8640   -2.3940 C.3   124  LEU124      0.0001
     89  N          3.8830   29.3420    2.6920 N.am  125  GLY125     -0.1940
     90  CA         3.0370   30.2310    3.4390 C.3   125  GLY125      0.2014
     91  C          3.7110   31.5120    3.8000 C.2   125  GLY125      0.2640
     92  O          4.9110   31.7060    3.6370 O.2   125  GLY125     -0.2714
     93  N          2.8790   32.3800    4.3420 N.am  126  SER126     -0.1936
     94  CA         3.2660   33.7180    4.7990 C.3   126  SER126      0.2043
     95  C          2.4800   34.0480    6.0410 C.2   126  SER126      0.2523
     96  O          1.3460   33.6310    6.1790 O.2   126  SER126     -0.2726
     97  CB         2.8880   34.7270    3.7630 C.3   126  SER126      0.2129
     98  OG         3.0520   36.0290    4.2920 O.3   126  SER126     -0.2179
     99  N          3.0320   34.8690    6.9460 N.am  127  PRO127     -0.2490
    100  CA         2.2630   35.2670    8.1250 C.3   127  PRO127      0.1619
    101  C          1.2020   36.3320    7.8450 C.2   127  PRO127      0.2606
    102  O          0.3630   36.5980    8.7040 O.2   127  PRO127     -0.2715
    103  CB         3.3180   35.8530    9.0860 C.3   127  PRO127      0.0570
    104  CG         4.5950   35.9670    8.3420 C.2   127  PRO127     -0.0077
    105  CD         4.4030   35.3810    6.9560 C.2   127  PRO127      0.0634
    106  N          1.2270   36.8970    6.6450 N.am  128  SER128     -0.1937
    107  CA         0.3330   37.9830    6.2690 C.3   128  SER128      0.2040
    108  C         -0.6860   37.5860    5.2270 C.2   128  SER128      0.2485
    109  O         -0.3540   36.8220    4.3020 O.2   128  SER128     -0.2729
    110  CB         1.1840   39.1130    5.6850 C.3   128  SER128      0.2129
    111  OG         1.9770   39.6690    6.6960 O.3   128  SER128     -0.2179
    112  N         -1.8970   38.1110    5.3240 N.am  129  PRO129     -0.2715
    113  CA        -2.9380   37.8400    4.3440 C.3   129  PRO129      0.1536
    114  C         -2.7170   38.6570    3.0920 C.2   129  PRO129      0.2599
    115  O         -1.9610   39.6480    3.0980 O.2   129  PRO129     -0.2715
    116  CB        -4.2150   38.2870    5.0450 C.3   129  PRO129      0.0310
    117  CG        -3.8010   39.2880    6.0080 C.3   129  PRO129      0.0237
    118  CD        -2.3850   38.9940    6.4000 C.3   129  PRO129      0.0939
    119  N         -3.3080   38.1870    2.0090 N.am  130  SER130     -0.1950
    120  CA        -3.3010   38.8870    0.7420 C.3   130  SER130      0.1924
    121  C         -4.6230   38.6240    0.0520 C.2   130  SER130      0.2314
    122  O         -4.9370   37.4740   -0.1980 O.2   130  SER130     -0.2863
    123  CB        -2.1560   38.3660   -0.1330 C.3   130  SER130      0.2116
    124  OG        -2.3740   38.7180   -1.4850 O.3   130  SER130     -0.2180
    125  N         -4.2960   36.4320   -2.9830 N.3   133  LEU133     -0.1245
    126  CA        -4.1460   35.0190   -2.6520 C.3   133  LEU133      0.1561
    127  C         -5.5030   34.4140   -2.2540 C.2   133  LEU133      0.2260
    128  O         -5.8770   33.3290   -2.7010 O.2   133  LEU133     -0.2867
    129  CB        -3.1660   34.8930   -1.5060 C.3   133  LEU133      0.0270
    130  CG        -2.5400   33.5460   -1.2630 C.3   133  LEU133      0.0019
    131  CD1       -2.0100   32.9160   -2.5470 C.3   133  LEU133      0.0001
    132  CD2       -1.4230   33.7150   -0.2220 C.3   133  LEU133      0.0001
    133  N          2.5060   26.0260    8.6650 N.3   152  GLY152     -0.1210
    134  CA         3.6280   26.8850    8.9870 C.3   152  GLY152      0.1956
    135  C          4.5330   26.3440   10.0710 C.2   152  GLY152      0.2612
    136  O          4.1180   25.5150   10.8660 O.2   152  GLY152     -0.2717
    137  N          5.7340   26.9060   10.1550 N.am  153  ASN153     -0.1960
    138  CA         6.7640   26.3570   11.0290 C.3   153  ASN153      0.1819
    139  C          7.2050   27.2880   12.1610 C.2   153  ASN153      0.2622
    140  O          8.2640   27.0540   12.7830 O.2   153  ASN153     -0.2715
    141  CB         7.9940   25.9510   10.2180 C.3   153  ASN153      0.1195
    142  CG         7.8390   25.1260    8.9570 C.2   153  ASN153      0.2630
    143  OD1        8.4080   25.4250    7.9020 O.2   153  ASN153     -0.2716
    144  ND2        7.0570   24.0660    9.0770 N.am  153  ASN153     -0.0877
    145  N          6.3980   28.2620   12.4910 N.am  154  SER154     -0.1950
    146  CA         6.7690   29.1380   13.6090 C.3   154  SER154      0.1924
    147  C          6.5230   28.6380   15.0100 C.2   154  SER154      0.2314
    148  O          6.9810   29.2790   15.9580 O.2   154  SER154     -0.2863
    149  CB         6.0530   30.4620   13.4390 C.3   154  SER154      0.2116
    150  OG         4.7510   30.3750   13.9490 O.3   154  SER154     -0.2180
    151  N         -0.5320   29.9060    9.2000 N.3   160  SER160     -0.1202
    152  CA        -0.0890   30.7630    8.1150 C.3   160  SER160      0.2020
    153  C         -1.1250   30.9000    7.0200 C.2   160  SER160      0.2619
    154  O         -2.0830   30.1600    6.9850 O.2   160  SER160     -0.2717
    155  CB         1.1960   30.1600    7.5200 C.3   160  SER160      0.2103
    156  OG         2.2540   30.1350    8.4640 O.3   160  SER160     -0.2182
    157  N         -0.9040   31.8470    6.0950 N.am  161  TYR161     -0.1962
    158  CA        -1.7170   31.9680    4.8910 C.3   161  TYR161      0.1756
    159  C         -0.9610   31.3660    3.7140 C.2   161  TYR161      0.2461
    160  O          0.2470   31.5140    3.6180 O.2   161  TYR161     -0.2730
    161  CB        -2.0000   33.4470    4.5760 C.3   161  TYR161      0.0574
    162  CG        -2.7990   34.1690    5.6310 C.ar  161  TYR161     -0.0198
    163  CD1       -2.1700   34.7590    6.7320 C.ar  161  TYR161     -0.0009
    164  CD2       -4.1430   34.2100    5.5630 C.ar  161  TYR161     -0.0009
    165  CE1       -2.8830   35.3880    7.6810 C.ar  161  TYR161      0.0417
    166  CE2       -4.8640   34.8780    6.5300 C.ar  161  TYR161      0.0417
    167  CZ        -4.2230   35.4390    7.5650 C.ar  161  TYR161      0.1957
    168  OH        -4.9590   36.1470    8.5330 O.3   161  TYR161     -0.2866
    169  N         -1.5890   30.7160    2.7540 N.am  162  PRO162     -0.2727
    170  CA        -3.0240   30.5800    2.5780 C.3   162  PRO162      0.1402
    171  C         -3.7460   29.5600    3.4040 C.2   162  PRO162      0.2269
    172  O         -4.9770   29.4680    3.2800 O.2   162  PRO162     -0.2865
    173  CB        -3.1260   30.1810    1.0870 C.3   162  PRO162      0.0296
    174  CG        -1.9050   29.4910    0.7940 C.3   162  PRO162      0.0237
    175  CD        -0.8580   30.1450    1.6130 C.3   162  PRO162      0.0939
    176  N          2.6460   24.9660   13.3670 N.3   185  GLN185     -0.1245
    177  CA         1.6080   25.9330   13.7380 C.3   185  GLN185      0.1566
    178  C          0.2790   25.2470   13.9180 C.2   185  GLN185      0.2260
    179  O         -0.0470   24.2750   13.2360 O.2   185  GLN185     -0.2867
    180  CB         1.5510   27.0940   12.7270 C.3   185  GLN185      0.0367
    181  CG         2.7590   27.9720   12.8720 C.3   185  GLN185      0.0905
    182  CD         2.8450   29.1210   11.8800 C.2   185  GLN185      0.2608
    183  OE1        1.9020   29.9510   11.7660 O.2   185  GLN185     -0.2717
    184  NE2        3.9320   29.2150   11.2150 N.am  185  GLN185     -0.0878
    185  N         12.5500   18.1440    7.6070 N.3   212  ASN212     -0.1240
    186  CA        11.4780   18.4050    8.5620 C.3   212  ASN212      0.1653
    187  C         10.6680   19.6040    8.1710 C.2   212  ASN212      0.2266
    188  O         11.2360   20.5950    7.6810 O.2   212  ASN212     -0.2867
    189  CB        12.0480   18.7250    9.9400 C.3   212  ASN212      0.1155
    190  CG        13.0430   17.7130   10.3870 C.2   212  ASN212      0.2627
    191  OD1       12.7390   16.5250   10.4890 O.2   212  ASN212     -0.2716
    192  ND2       14.2960   18.1720   10.6210 N.am  212  ASN212     -0.0877
    193  N          6.2930   21.4950    8.1320 N.3   214  THR214     -0.1218
    194  CA         4.8910   21.3170    7.7070 C.3   214  THR214      0.1862
    195  C          4.7890   21.1790    6.1960 C.2   214  THR214      0.2287
    196  O          3.7800   20.6610    5.6980 O.2   214  THR214     -0.2866
    197  CB         3.9470   22.4110    8.2430 C.3   214  THR214      0.1770
    198  OG1        4.4210   23.7150    7.8410 O.3   214  THR214     -0.2211
    199  CG2        3.8970   22.3780    9.7740 C.3   214  THR214      0.0375
@<TRIPOS>BOND
     1     4     3    2
     2     3     2    1
     3    29    28    2
     4    70    69    2
     5    59    58    1
     6    67    68    1
     7    69    68    1
     8    26    27    1
     9    28    27    1
    10    68    71    1
    11     2     1    1
    12     2     5    1
    13    58    55    1
    14    27    30    1
    15    63    62    2
    16     8     9    1
    17    62    61    1
    18     5     6    1
    19     5     7    1
    20    57    56    2
    21    54    55    1
    22    54    52   am
    23    71    72    1
    24    71    73    1
    25    55    56    1
    26    56    60   am
    27    30    31    1
    28    34    35    1
    29    47    46    2
    30    51    52    1
    31    51    50    1
    32    72    74    1
    33     9    12    1
    34     9    10    1
    35    61    60    1
    36    61    64    1
    37    52    53    2
    38    12    13    1
    39    31    33    1
    40    31    32    1
    41    10    11    2
    42    65    64    1
    43    46    50   am
    44    46    45    1
    45    64    66    1
    46    39    38    1
    47    38    35    1
    48    35    36    1
    49    49    48    1
    50   125   126    1
    51    40    36   am
    52    40    41    1
    53   128   127    2
    54   126   127    1
    55   126   129    1
    56    13    15   am
    57    13    14    2
    58    18    19    2
    59    18    17    1
    60   131   130    1
    61    16    17    1
    62    44    45    1
    63    44    42   am
    64    36    37    2
    65    88    86    1
    66    45    48    1
    67    41    42    1
    68    42    43    2
    69    17    20    1
    70   129   130    1
    71   124   123    1
    72    20    21    1
    73   130   132    1
    74    86    87    1
    75    86    85    1
    76    22    21   ar
    77    22    24   ar
    78    21    23   ar
    79    75    76    1
    80   122   121    2
    81   123   120    1
    82    85    82    1
    83   121   120    1
    84    24    25   ar
    85    79    80    1
    86    79    76    1
    87   120   119    1
    88   174   173    1
    89   174   175    1
    90    76    77    1
    91    78    77    2
    92    23    25   ar
    93    77    81   am
    94   173   170    1
    95    81    82    1
    96    82    83    1
    97   175   169    1
    98   119   114   am
    99    83    84    2
   100    83    89   am
   101   170   169    1
   102   170   171    1
   103    89    90    1
   104   169   159   am
   105   114   115    2
   106   114   113    1
   107   172   171    2
   108    90    91    1
   109   160   159    2
   110    92    91    2
   111   159   158    1
   112    97    98    1
   113    97    94    1
   114    91    93   am
   115   109   108    2
   116    93    94    1
   117   113   116    1
   118   113   112    1
   119   161   158    1
   120   161   162    1
   121    94    95    1
   122   158   157    1
   123   116   117    1
   124   108   112   am
   125   108   107    1
   126   112   118    1
   127   164   162   ar
   128   164   166   ar
   129   162   163   ar
   130   110   107    1
   131   110   111    1
   132   196   195    2
   133   117   118    1
   134    95    96    2
   135    95    99   am
   136   157   153   am
   137   195   194    1
   138   107   106    1
   139   166   167   ar
   140   106   101   am
   141   163   165   ar
   142    99   105    1
   143    99   100    1
   144   105   104    2
   145   154   153    2
   146   153   152    1
   147   155   152    1
   148   155   156    1
   149   167   165   ar
   150   167   168    1
   151   185   186    1
   152   188   187    2
   153   194   193    1
   154   194   197    1
   155   198   197    1
   156   101   100    1
   157   101   102    2
   158   143   142    2
   159   152   151    1
   160   100   103    1
   161   187   186    1
   162   197   199    1
   163   104   103    1
   164   186   189    1
   165   133   134    1
   166   142   144   am
   167   142   141    1
   168   134   135    1
   169   189   190    1
   170   135   137   am
   171   135   136    2
   172   137   138    1
   173   141   138    1
   174   190   191    2
   175   190   192   am
   176   138   139    1
   177   184   182   am
   178   183   182    2
   179   182   181    1
   180   139   145   am
   181   139   140    2
   182   145   146    1
   183   180   181    1
   184   180   177    1
   185   179   178    2
   186   176   177    1
   187   149   146    1
   188   149   150    1
   189   146   147    1
   190   177   178    1
   191   147   148    2
