@<TRIPOS>MOLECULE
tmp/1tkdC02.pdb
 89 86 0 0 0
SMALL
GASTEIGER

@<TRIPOS>ATOM
      1  N         21.9090  187.0850   29.5160 N.3     8  ALA8       -0.1231
      2  CA        21.6160  186.4540   28.2370 C.3     8  ALA8        0.1694
      3  C         21.6460  184.9360   28.3970 C.2     8  ALA8        0.2592
      4  O         22.0260  184.4280   29.4520 O.2     8  ALA8       -0.2718
      5  CB        22.6240  186.9050   27.1880 C.3     8  ALA8        0.0304
      6  N         21.2670  184.2130   27.3460 N.am    9  ASN9       -0.1960
      7  CA        21.2060  182.7550   27.4120 C.3     9  ASN9        0.1819
      8  C         22.4870  181.9780   27.1520 C.2     9  ASN9        0.2621
      9  O         22.4920  180.7560   27.2490 O.2     9  ASN9       -0.2715
     10  CB        20.1150  182.2430   26.4710 C.3     9  ASN9        0.1195
     11  CG        20.4650  182.4300   25.0060 C.2     9  ASN9        0.2630
     12  OD1       21.3430  183.2170   24.6560 O.2     9  ASN9       -0.2716
     13  ND2       19.7570  181.7210   24.1380 N.am    9  ASN9       -0.0877
     14  N         23.5800  182.6590   26.8330 N.am   10  ALA10      -0.1963
     15  CA        24.8200  181.9390   26.5710 C.3    10  ALA10       0.1728
     16  C         26.0170  182.8680   26.4830 C.2    10  ALA10       0.2616
     17  O         25.8800  184.0880   26.5910 O.2    10  ALA10      -0.2715
     18  CB        24.6860  181.1370   25.2680 C.3    10  ALA10       0.0334
     19  N         27.1980  182.2800   26.3150 N.am   11  LEU11      -0.1977
     20  CA        28.4140  183.0680   26.1650 C.3    11  LEU11       0.1596
     21  C         28.2980  183.7300   24.7920 C.2    11  LEU11       0.2287
     22  O         27.4760  183.3230   23.9700 O.2    11  LEU11      -0.2864
     23  CB        29.6590  182.1720   26.2330 C.3    11  LEU11       0.0297
     24  CG        29.8920  181.4480   27.5660 C.3    11  LEU11       0.0022
     25  CD1       31.0950  180.5190   27.4630 C.3    11  LEU11       0.0001
     26  CD2       30.1000  182.4720   28.6680 C.3    11  LEU11       0.0001
     27  N         32.9150  194.2130   32.7310 N.3    60  ASN60      -0.1240
     28  CA        33.2970  193.2430   31.7060 C.3    60  ASN60       0.1653
     29  C         32.4680  193.4170   30.4410 C.2    60  ASN60       0.2266
     30  O         32.3650  192.5080   29.6190 O.2    60  ASN60      -0.2867
     31  CB        33.1590  191.8000   32.2070 C.3    60  ASN60       0.1155
     32  CG        33.8300  190.8090   31.2780 C.2    60  ASN60       0.2627
     33  OD1       34.9580  191.0300   30.8540 O.2    60  ASN60      -0.2716
     34  ND2       33.1480  189.7190   30.9580 N.am   60  ASN60      -0.0877
     35  N         32.0220  191.3050   26.8720 N.3    64  TYR64      -0.1241
     36  CA        30.7360  190.6370   26.7570 C.3    64  TYR64       0.1605
     37  C         29.5240  191.4870   26.3830 C.2    64  TYR64       0.2264
     38  O         29.0970  191.4870   25.2260 O.2    64  TYR64      -0.2867
     39  CB        30.4250  189.8710   28.0430 C.3    64  TYR64       0.0534
     40  CG        29.1630  189.0490   27.9440 C.ar   64  TYR64      -0.0201
     41  CD1       29.1150  187.9060   27.1500 C.ar   64  TYR64      -0.0009
     42  CD2       28.0030  189.4420   28.6070 C.ar   64  TYR64      -0.0009
     43  CE1       27.9450  187.1800   27.0160 C.ar   64  TYR64       0.0417
     44  CE2       26.8250  188.7210   28.4820 C.ar   64  TYR64       0.0417
     45  CZ        26.8010  187.5940   27.6870 C.ar   64  TYR64       0.1957
     46  OH        25.6370  186.8690   27.5760 O.3    64  TYR64      -0.2866
     47  N         36.3350  186.3970   35.7900 N.3   107  MET107     -0.1230
     48  CA        34.8880  186.2410   35.7420 C.3   107  MET107      0.1702
     49  C         34.4280  184.7930   35.8910 C.2   107  MET107      0.2593
     50  O         33.6050  184.3090   35.1120 O.2   107  MET107     -0.2718
     51  CB        34.3260  186.8500   34.4480 C.3   107  MET107      0.0401
     52  CG        34.3080  188.3690   34.4380 C.3   107  MET107      0.0596
     53  SD        33.2790  189.0250   35.7800 S.3   107  MET107     -0.1393
     54  CE        31.7430  189.4070   34.9150 C.3   107  MET107      0.0692
     55  N         34.9690  184.0980   36.8860 N.am  108  GLY108     -0.1942
     56  CA        34.5590  182.7240   37.1220 C.3   108  GLY108      0.2014
     57  C         35.1540  181.6360   36.2430 C.2   108  GLY108      0.2638
     58  O         34.7370  180.4790   36.3360 O.2   108  GLY108     -0.2714
     59  N         36.1100  181.9770   35.3850 N.am  109  LEU109     -0.1977
     60  CA        36.7220  180.9550   34.5450 C.3   109  LEU109      0.1596
     61  C         37.8040  180.2300   35.3290 C.2   109  LEU109      0.2287
     62  O         38.1720  179.1070   35.0000 O.2   109  LEU109     -0.2864
     63  CB        37.3210  181.5700   33.2820 C.3   109  LEU109      0.0297
     64  CG        36.2660  182.0280   32.2780 C.3   109  LEU109      0.0022
     65  CD1       36.9350  182.5840   31.0260 C.3   109  LEU109      0.0001
     66  CD2       35.3690  180.8460   31.9340 C.3   109  LEU109      0.0001
     67  N         27.3540  184.0790   38.4040 N.3   130  LYS130     -0.1245
     68  CA        26.8490  182.9570   37.6160 C.3   130  LYS130      0.1561
     69  C         26.8530  181.6760   38.4340 C.2   130  LYS130      0.2260
     70  O         25.9090  180.8920   38.3730 O.2   130  LYS130     -0.2867
     71  CB        27.6780  182.7630   36.3460 C.3   130  LYS130      0.0271
     72  CG        27.5350  183.9030   35.3710 C.3   130  LYS130      0.0035
     73  CD        28.3620  183.6930   34.1150 C.3   130  LYS130      0.0206
     74  CE        27.9220  182.4700   33.3430 C.3   130  LYS130      0.1093
     75  NZ        28.6310  182.4380   32.0440 N.3   130  LYS130     -0.1314
     76  N         20.1390  178.9480   32.3020 N.3   154  TRP154     -0.1241
     77  CA        20.2800  180.0480   31.3560 C.3   154  TRP154      0.1605
     78  C         19.3570  179.9590   30.1510 C.2   154  TRP154      0.2264
     79  O         19.3040  180.8830   29.3370 O.2   154  TRP154     -0.2867
     80  CB        21.7320  180.1470   30.8780 C.3   154  TRP154      0.0550
     81  CG        22.6560  180.5380   31.9760 C.ar  154  TRP154      0.0003
     82  CD1       23.6300  179.7690   32.5450 C.ar  154  TRP154      0.0946
     83  CD2       22.6470  181.7750   32.6940 C.ar  154  TRP154      0.0152
     84  NE1       24.2240  180.4520   33.5770 N.ar  154  TRP154     -0.2442
     85  CE2       23.6380  181.6860   33.6910 C.ar  154  TRP154      0.0810
     86  CE3       21.8930  182.9500   32.5910 C.ar  154  TRP154      0.0012
     87  CZ2       23.8980  182.7300   34.5860 C.ar  154  TRP154      0.0191
     88  CZ3       22.1510  183.9900   33.4810 C.ar  154  TRP154      0.0001
     89  CH2       23.1470  183.8710   34.4650 C.ar  154  TRP154      0.0015
@<TRIPOS>BOND
     1    22    21    2
     2    13    11   am
     3    12    11    2
     4    21    20    1
     5    11    10    1
     6    38    37    2
     7    18    15    1
     8    20    23    1
     9    20    19    1
    10    23    24    1
    11    19    16   am
    12    37    36    1
    13    10     7    1
    14    16    15    1
    15    16    17    2
    16    15    14    1
    17    36    35    1
    18    36    39    1
    19    14     8   am
    20    43    41   ar
    21    43    45   ar
    22    41    40   ar
    23     8     9    2
    24     8     7    1
    25     5     2    1
    26     6     7    1
    27     6     3   am
    28    25    24    1
    29    24    26    1
    30    46    45    1
    31    45    44   ar
    32    40    39    1
    33    40    42   ar
    34     2     3    1
    35     2     1    1
    36     3     4    2
    37    44    42   ar
    38    79    78    2
    39    30    29    2
    40    78    77    1
    41    29    28    1
    42    33    32    2
    43    80    77    1
    44    80    81    1
    45    34    32   am
    46    65    64    1
    47    32    31    1
    48    77    76    1
    49    28    31    1
    50    28    27    1
    51    66    64    1
    52    81    82   ar
    53    81    83   ar
    54    75    74    1
    55    64    63    1
    56    82    84   ar
    57    86    83   ar
    58    86    88   ar
    59    83    85   ar
    60    63    60    1
    61    74    73    1
    62    88    89   ar
    63    84    85   ar
    64    85    87   ar
    65    73    72    1
    66    52    51    1
    67    52    53    1
    68    51    48    1
    69    89    87   ar
    70    60    61    1
    71    60    59    1
    72    54    53    1
    73    62    61    2
    74    50    49    2
    75    72    71    1
    76    59    57   am
    77    48    47    1
    78    48    49    1
    79    49    55   am
    80    57    58    2
    81    57    56    1
    82    71    68    1
    83    55    56    1
    84    68    67    1
    85    68    69    1
    86    70    69    2
