@<TRIPOS>MOLECULE
tmp/1tkeA00.pdb
 87 85 0 0 0
SMALL
GASTEIGER

@<TRIPOS>ATOM
      1  N         10.1220    0.8380   48.0500 N.3    73  HIS73      -0.1241
      2  CA        11.1040    1.7000   47.4160 C.3    73  HIS73       0.1621
      3  C         12.2230    0.8790   46.7760 C.2    73  HIS73       0.2264
      4  O         12.6690    1.1810   45.6620 O.2    73  HIS73      -0.2867
      5  CB        11.6870    2.6740   48.4390 C.3    73  HIS73       0.0745
      6  CG        12.0750    3.9920   47.8520 C.ar   73  HIS73       0.0817
      7  ND1       12.3540    5.0940   48.6310 N.ar   73  HIS73      -0.2268
      8  CD2       12.1950    4.4000   46.5650 C.ar   73  HIS73       0.1154
      9  CE1       12.6250    6.1250   47.8490 C.ar   73  HIS73       0.1986
     10  NE2       12.5350    5.7310   46.5910 N.ar   73  HIS73      -0.2212
     11  N         11.4300   -0.4440   43.4770 N.3    76  ALA76      -0.1231
     12  CA        11.5790    0.5010   42.3710 C.3    76  ALA76       0.1694
     13  C         13.0250    0.3730   41.8730 C.2    76  ALA76       0.2592
     14  O         13.2740    0.3450   40.6650 O.2    76  ALA76      -0.2718
     15  CB        11.2950    1.9260   42.8300 C.3    76  ALA76       0.0304
     16  N         13.9830    0.2730   42.7970 N.am   77  HIS77      -0.1976
     17  CA        15.3780    0.0990   42.3960 C.3    77  HIS77       0.1656
     18  C         15.5280   -1.2220   41.6430 C.2    77  HIS77       0.2291
     19  O         16.2680   -1.3010   40.6620 O.2    77  HIS77      -0.2864
     20  CB        16.3110    0.1130   43.6130 C.3    77  HIS77       0.0771
     21  CG        16.5920    1.4850   44.1440 C.ar   77  HIS77       0.0820
     22  ND1       17.6190    1.7450   45.0270 N.ar   77  HIS77      -0.2267
     23  CD2       15.9890    2.6750   43.9080 C.ar   77  HIS77       0.1154
     24  CE1       17.6350    3.0350   45.3120 C.ar   77  HIS77       0.1986
     25  NE2       16.6550    3.6220   44.6470 N.ar   77  HIS77      -0.2212
     26  N         12.4960    9.2970   37.7260 N.3    94  ILE94      -0.1231
     27  CA        12.1190    9.2600   39.1400 C.3    94  ILE94       0.1692
     28  C         11.2710    8.0160   39.4250 C.2    94  ILE94       0.2593
     29  O         10.4070    7.6620   38.6250 O.2    94  ILE94      -0.2718
     30  CB        11.3360   10.5450   39.5190 C.3    94  ILE94       0.0266
     31  CG1       12.2620   11.7610   39.4040 C.3    94  ILE94       0.0019
     32  CG2       10.7820   10.4400   40.9370 C.3    94  ILE94       0.0020
     33  CD1       11.5520   13.0900   39.5460 C.3    94  ILE94       0.0001
     34  N         11.5270    7.3570   40.5560 N.am   95  GLY95      -0.1943
     35  CA        10.7800    6.1560   40.9180 C.3    95  GLY95       0.1998
     36  C         10.4540    6.1540   42.4040 C.2    95  GLY95       0.2480
     37  O         11.1190    5.4980   43.2030 O.2    95  GLY95      -0.2729
     38  N          9.3990    6.8700   42.8040 N.am   96  PRO96      -0.2726
     39  CA         8.9940    6.9590   44.2030 C.3    96  PRO96       0.1402
     40  C          7.9970    5.9180   44.6630 C.2    96  PRO96       0.2269
     41  O          7.4250    5.1790   43.8610 O.2    96  PRO96      -0.2865
     42  CB         8.3960    8.3500   44.2700 C.3    96  PRO96       0.0296
     43  CG         7.6270    8.4030   42.9750 C.3    96  PRO96       0.0237
     44  CD         8.5480    7.7230   41.9560 C.3    96  PRO96       0.0939
     45  N          8.0360    3.8600   38.3700 N.3   104  TYR104     -0.1241
     46  CA         9.3070    4.3720   37.8940 C.3   104  TYR104      0.1605
     47  C          9.0670    4.9340   36.5040 C.2   104  TYR104      0.2264
     48  O          8.5040    4.2520   35.6390 O.2   104  TYR104     -0.2867
     49  CB        10.3970    3.2860   37.8300 C.3   104  TYR104      0.0534
     50  CG        11.7820    3.7940   38.2130 C.ar  104  TYR104     -0.0201
     51  CD1       12.2620    5.0110   37.7250 C.ar  104  TYR104     -0.0009
     52  CD2       12.5950    3.0720   39.0960 C.ar  104  TYR104     -0.0009
     53  CE1       13.5130    5.5020   38.1100 C.ar  104  TYR104      0.0417
     54  CE2       13.8480    3.5550   39.4870 C.ar  104  TYR104      0.0417
     55  CZ        14.2970    4.7710   38.9910 C.ar  104  TYR104      0.1957
     56  OH        15.5170    5.2820   39.3820 O.3   104  TYR104     -0.2866
     57  N         19.0990   11.6360   35.8370 N.3   156  LYS156     -0.1245
     58  CA        19.6890   11.6530   37.1760 C.3   156  LYS156      0.1561
     59  C         20.6510   12.8390   37.2570 C.2   156  LYS156      0.2260
     60  O         20.7190   13.5280   38.2730 O.2   156  LYS156     -0.2867
     61  CB        20.4410   10.3500   37.4620 C.3   156  LYS156      0.0271
     62  CG        19.5580    9.1050   37.5050 C.3   156  LYS156      0.0035
     63  CD        18.5000    9.1940   38.5920 C.3   156  LYS156      0.0206
     64  CE        17.7700    7.8640   38.7340 C.3   156  LYS156      0.1093
     65  NZ        16.6180    7.9730   39.6800 N.3   156  LYS156     -0.1314
     66  N         21.5640    3.4750   41.8220 N.3   180  ASP180     -0.1225
     67  CA        20.5020    4.4690   41.8750 C.3   180  ASP180      0.1805
     68  C         20.8850    5.4580   42.9780 C.2   180  ASP180      0.2598
     69  O         21.8650    5.2480   43.6980 O.2   180  ASP180     -0.2718
     70  CB        19.1310    3.8180   42.1470 C.3   180  ASP180      0.1424
     71  CG        17.9800    4.5590   41.4630 C.2   180  ASP180      0.3668
     72  OD1       17.9460    5.8080   41.5320 O.co2 180  ASP180     -0.2456
     73  OD2       17.1000    3.8930   40.8650 O.co2 180  ASP180     -0.2456
     74  N         20.1170    6.5340   43.0990 N.am  181  MET181     -0.1965
     75  CA        20.3840    7.6010   44.0610 C.3   181  MET181      0.1736
     76  C         19.1290    7.8540   44.8790 C.2   181  MET181      0.2616
     77  O         18.0370    7.9590   44.3270 O.2   181  MET181     -0.2715
     78  CB        20.7880    8.8520   43.2880 C.3   181  MET181      0.0427
     79  CG        21.0450   10.0740   44.1330 C.3   181  MET181      0.0599
     80  SD        21.7090   11.4140   43.1330 S.3   181  MET181     -0.1393
     81  CE        20.2950   11.7990   42.1040 C.3   181  MET181      0.0692
     82  N         19.2730    7.9790   46.1950 N.am  182  CYS182     -0.1968
     83  CA        18.0900    8.1410   47.0200 C.3   182  CYS182      0.1712
     84  C         18.3890    8.6020   48.4330 C.2   182  CYS182      0.2296
     85  O         19.5180    8.4920   48.9130 O.2   182  CYS182     -0.2864
     86  CB        17.3860    6.7820   47.0970 C.3   182  CYS182      0.0983
     87  SG        15.6750    6.7930   47.6070 S.3   182  CYS182     -0.0798
@<TRIPOS>BOND
     1    48    47    2
     2    57    58    1
     3    47    46    1
     4    58    59    1
     5    58    61    1
     6    59    60    2
     7    61    62    1
     8    62    63    1
     9    51    53   ar
    10    51    50   ar
    11    26    27    1
    12    49    46    1
    13    49    50    1
    14    46    45    1
    15    53    55   ar
    16    50    52   ar
    17    63    64    1
    18    29    28    2
    19    64    65    1
    20    55    56    1
    21    55    54   ar
    22    52    54   ar
    23    27    28    1
    24    27    30    1
    25    31    30    1
    26    31    33    1
    27    28    34   am
    28    30    32    1
    29    34    35    1
    30    19    18    2
    31    14    13    2
    32    73    71   ar
    33    35    36    1
    34    71    72   ar
    35    71    70    1
    36    18    17    1
    37    66    67    1
    38    13    12    1
    39    13    16   am
    40    67    70    1
    41    67    68    1
    42    44    38    1
    43    44    43    1
    44    81    80    1
    45    12    15    1
    46    12    11    1
    47    17    16    1
    48    17    20    1
    49    36    38   am
    50    36    37    2
    51    38    39    1
    52    43    42    1
    53    68    74   am
    54    68    69    2
    55    74    75    1
    56    80    79    1
    57    78    75    1
    58    78    79    1
    59    20    21    1
    60    41    40    2
    61    23    21   ar
    62    23    25   ar
    63    75    76    1
    64    21    22   ar
    65    39    42    1
    66    39    40    1
    67    77    76    2
    68    25    24   ar
    69    76    82   am
    70    22    24   ar
    71     4     3    2
    72    82    83    1
    73     8    10   ar
    74     8     6   ar
    75    10     9   ar
    76     3     2    1
    77    83    86    1
    78    83    84    1
    79    86    87    1
    80     2     1    1
    81     2     5    1
    82     9     7   ar
    83     6     5    1
    84     6     7   ar
    85    84    85    2
