@<TRIPOS>MOLECULE
tmp/1tkfA00.pdb
 150 145 0 0 0
SMALL
GASTEIGER

@<TRIPOS>ATOM
      1  N         21.7720   46.8180  -61.1750 N.3    85  HIS85      -0.1241
      2  CA        22.3880   45.6780  -60.5160 C.3    85  HIS85       0.1621
      3  C         22.6060   44.5530  -61.5160 C.2    85  HIS85       0.2264
      4  O         21.7540   44.2780  -62.3660 O.2    85  HIS85      -0.2867
      5  CB        21.6390   45.1870  -59.2950 C.3    85  HIS85       0.0745
      6  CG        20.3480   44.5010  -59.4670 C.ar   85  HIS85       0.0817
      7  ND1       20.2150   43.1160  -59.4970 N.ar   85  HIS85      -0.2268
      8  CD2       19.0850   44.9710  -59.5460 C.ar   85  HIS85       0.1154
      9  CE1       18.9310   42.8040  -59.6250 C.ar   85  HIS85       0.1986
     10  NE2       18.1980   43.9250  -59.6520 N.ar   85  HIS85      -0.2212
     11  N         15.3660   40.6590  -64.7500 N.3    97  ASP97      -0.1239
     12  CA        15.7980   41.1800  -63.4420 C.3    97  ASP97       0.1674
     13  C         17.1930   40.6490  -63.1180 C.2    97  ASP97       0.2266
     14  O         17.3180   39.5780  -62.4890 O.2    97  ASP97      -0.2867
     15  CB        14.8310   40.7220  -62.3470 C.3    97  ASP97       0.1410
     16  CG        15.1680   41.4130  -61.0240 C.2    97  ASP97       0.3668
     17  OD1       15.8730   42.4270  -61.0500 O.co2  97  ASP97      -0.2456
     18  OD2       14.6740   40.9040  -59.9940 O.co2  97  ASP97      -0.2456
     19  N         22.4760   43.0670  -55.0620 N.3   131  GLU131     -0.1231
     20  CA        21.2190   43.8130  -54.8460 C.3   131  GLU131      0.1699
     21  C         20.2030   42.8750  -54.2350 C.2   131  GLU131      0.2592
     22  O         19.3850   43.2940  -53.3860 O.2   131  GLU131     -0.2718
     23  CB        20.7470   44.4210  -56.1690 C.3   131  GLU131      0.0402
     24  CG        19.5190   45.3030  -56.0520 C.3   131  GLU131      0.1161
     25  CD        18.1690   44.6480  -56.0070 C.2   131  GLU131      0.3649
     26  OE1       18.1550   43.4140  -56.2890 O.co2 131  GLU131     -0.2457
     27  OE2       17.1610   45.3420  -55.6600 O.co2 131  GLU131     -0.2457
     28  N         20.1800   41.6140  -54.6750 N.am  132  GLU132     -0.1979
     29  CA        19.1400   40.6810  -54.2300 C.3   132  GLU132      0.1602
     30  C         19.3410   40.2620  -52.7860 C.2   132  GLU132      0.2287
     31  O         18.4400   39.6510  -52.1870 O.2   132  GLU132     -0.2864
     32  CB        19.1070   39.4930  -55.1810 C.3   132  GLU132      0.0415
     33  CG        18.7760   39.8920  -56.6320 C.3   132  GLU132      0.1163
     34  CD        17.3360   40.3230  -56.8410 C.2   132  GLU132      0.3649
     35  OE1       16.5280   40.4140  -55.8800 O.co2 132  GLU132     -0.2457
     36  OE2       16.9220   40.5360  -58.0270 O.co2 132  GLU132     -0.2457
     37  N         16.3570   49.0880  -63.4250 N.3   160  ASP160     -0.1225
     38  CA        16.1670   47.7770  -62.8030 C.3   160  ASP160      0.1805
     39  C         14.8120   47.2370  -63.2770 C.2   160  ASP160      0.2597
     40  O         13.7620   47.7100  -62.7910 O.2   160  ASP160     -0.2718
     41  CB        16.2320   47.8830  -61.3070 C.3   160  ASP160      0.1424
     42  CG        16.1770   46.5710  -60.5670 C.2   160  ASP160      0.3668
     43  OD1       16.0070   45.4960  -61.2300 O.co2 160  ASP160     -0.2456
     44  OD2       16.3290   46.5650  -59.3230 O.co2 160  ASP160     -0.2456
     45  N         14.8590   46.2360  -64.1600 N.am  161  MET161     -0.1979
     46  CA        13.6850   45.6100  -64.7850 C.3   161  MET161      0.1605
     47  C         13.0290   46.5970  -65.7870 C.2   161  MET161      0.2287
     48  O         12.1310   47.3610  -65.4310 O.2   161  MET161     -0.2864
     49  CB        12.6480   45.0820  -63.8140 C.3   161  MET161      0.0413
     50  CG        13.2440   44.0220  -62.8870 C.3   161  MET161      0.0598
     51  SD        12.0790   43.3200  -61.7110 S.3   161  MET161     -0.1393
     52  CE        10.9960   42.4120  -62.8220 C.3   161  MET161      0.0692
     53  N         10.4120   56.8900  -62.2220 N.3   172  TYR172     -0.1241
     54  CA        10.4820   57.2080  -60.7930 C.3   172  TYR172      0.1605
     55  C         10.0200   58.6500  -60.5310 C.2   172  TYR172      0.2264
     56  O         10.3730   59.5600  -61.3020 O.2   172  TYR172     -0.2867
     57  CB        11.8750   57.0640  -60.2000 C.3   172  TYR172      0.0534
     58  CG        12.5010   55.7040  -60.2460 C.ar  172  TYR172     -0.0201
     59  CD1       11.9930   54.5900  -60.9180 C.ar  172  TYR172     -0.0009
     60  CD2       13.7040   55.5240  -59.5550 C.ar  172  TYR172     -0.0009
     61  CE1       12.6370   53.3590  -60.8940 C.ar  172  TYR172      0.0417
     62  CE2       14.3640   54.3150  -59.5510 C.ar  172  TYR172      0.0417
     63  CZ        13.8420   53.2550  -60.2080 C.ar  172  TYR172      0.1957
     64  OH        14.5520   52.0450  -60.1980 O.3   172  TYR172     -0.2866
     65  N          6.1860   55.7700  -60.6250 N.3   196  GLU196     -0.1245
     66  CA         6.4280   54.4810  -59.9290 C.3   196  GLU196      0.1567
     67  C          5.8890   54.6960  -58.5230 C.2   196  GLU196      0.2260
     68  O          6.4730   55.5810  -57.8410 O.2   196  GLU196     -0.2867
     69  CB         7.8790   54.1350  -60.0470 C.3   196  GLU196      0.0388
     70  CG         8.4210   52.7860  -59.7070 C.3   196  GLU196      0.1160
     71  CD         7.8430   52.0590  -58.5200 C.2   196  GLU196      0.3649
     72  OE1        6.7020   51.5260  -58.6250 O.co2 196  GLU196     -0.2457
     73  OE2        8.5310   52.0270  -57.4700 O.co2 196  GLU196     -0.2457
     74  N         13.4280   49.6250  -52.8400 N.3   198  ARG198     -0.1231
     75  CA        13.2110   48.4930  -53.7240 C.3   198  ARG198      0.1694
     76  C         14.3380   48.2680  -54.6970 C.2   198  ARG198      0.2592
     77  O         14.3560   47.2050  -55.3490 O.2   198  ARG198     -0.2718
     78  CB        11.8880   48.6970  -54.4870 C.3   198  ARG198      0.0321
     79  CG        11.4500   47.5640  -55.4360 C.3   198  ARG198      0.0489
     80  CD        10.2970   48.0110  -56.2760 C.3   198  ARG198      0.2205
     81  NE        10.6670   48.8550  -57.3550 N.pl3 198  ARG198     -0.0865
     82  CZ        11.5200   48.5940  -58.3800 C.cat 198  ARG198      0.5346
     83  NH1       11.9610   47.3880  -58.6340 N.pl3 198  ARG198      0.1354
     84  NH2       12.0220   49.6030  -59.0870 N.pl3 198  ARG198      0.1354
     85  N         15.2580   49.2270  -54.8320 N.am  199  SER199     -0.1952
     86  CA        16.3690   49.0220  -55.7700 C.3   199  SER199      0.1924
     87  C         17.5180   49.9410  -55.3950 C.2   199  SER199      0.2314
     88  O         17.4870   50.6650  -54.3700 O.2   199  SER199     -0.2863
     89  CB        15.9230   49.2140  -57.2160 C.3   199  SER199      0.2116
     90  OG        16.9830   48.8010  -58.1190 O.3   199  SER199     -0.2180
     91  N         18.7930   52.7190  -56.3230 N.3   201  HIS201     -0.1241
     92  CA        18.7390   54.1680  -56.1010 C.3   201  HIS201      0.1621
     93  C         18.5090   54.5080  -54.6370 C.2   201  HIS201      0.2264
     94  O         18.7870   55.6270  -54.2340 O.2   201  HIS201     -0.2867
     95  CB        17.5700   54.8060  -56.8940 C.3   201  HIS201      0.0745
     96  CG        16.2240   54.2480  -56.5450 C.ar  201  HIS201      0.0817
     97  ND1       15.9020   52.9090  -56.6610 N.ar  201  HIS201     -0.2268
     98  CD2       15.1300   54.8790  -56.0620 C.ar  201  HIS201      0.1154
     99  CE1       14.6370   52.7330  -56.2680 C.ar  201  HIS201      0.1986
    100  NE2       14.1720   53.9450  -55.9140 N.ar  201  HIS201     -0.2212
    101  N         11.2420   51.6950  -64.9650 N.3   215  PHE215     -0.1241
    102  CA        10.8080   50.3770  -64.4660 C.3   215  PHE215      0.1605
    103  C          9.6270   49.9260  -65.2960 C.2   215  PHE215      0.2264
    104  O          8.7700   50.7810  -65.5760 O.2   215  PHE215     -0.2867
    105  CB        10.4240   50.4910  -62.9970 C.3   215  PHE215      0.0534
    106  CG         9.8250   49.2890  -62.3040 C.ar  215  PHE215     -0.0203
    107  CD1       10.5060   48.0680  -62.2690 C.ar  215  PHE215     -0.0042
    108  CD2        8.6110   49.3990  -61.6780 C.ar  215  PHE215     -0.0042
    109  CE1        9.9640   46.9890  -61.5830 C.ar  215  PHE215     -0.0003
    110  CE2        8.0520   48.3430  -60.9730 C.ar  215  PHE215     -0.0003
    111  CZ         8.7350   47.1420  -60.9240 C.ar  215  PHE215     -0.0000
    112  N          6.9510   44.4070  -62.0850 N.3   218  ALA218     -0.1245
    113  CA         7.4010   43.1120  -61.5560 C.3   218  ALA218      0.1562
    114  C          6.1990   42.2550  -61.2440 C.2   218  ALA218      0.2260
    115  O          5.4450   41.8980  -62.1310 O.2   218  ALA218     -0.2867
    116  CB         8.3510   43.3140  -60.3790 C.3   218  ALA218      0.0290
    117  N          3.3980   42.6910  -59.4920 N.3   220  TYR220     -0.1241
    118  CA         2.0400   43.1840  -59.3760 C.3   220  TYR220      0.1605
    119  C          1.3030   42.9540  -60.6910 C.2   220  TYR220      0.2264
    120  O          1.9070   42.7840  -61.7500 O.2   220  TYR220     -0.2867
    121  CB         1.9860   44.6600  -58.9530 C.3   220  TYR220      0.0534
    122  CG         2.5930   44.8700  -57.5680 C.ar  220  TYR220     -0.0201
    123  CD1        2.6990   43.7970  -56.6810 C.ar  220  TYR220     -0.0009
    124  CD2        3.0690   46.0970  -57.1660 C.ar  220  TYR220     -0.0009
    125  CE1        3.2550   43.9660  -55.4270 C.ar  220  TYR220      0.0417
    126  CE2        3.6200   46.2810  -55.9170 C.ar  220  TYR220      0.0417
    127  CZ         3.7110   45.2090  -55.0440 C.ar  220  TYR220      0.1957
    128  OH         4.2650   45.3760  -53.7840 O.3   220  TYR220     -0.2866
    129  N          9.1390   36.8020  -62.5770 N.3   242  TYR242     -0.1227
    130  CA         9.9430   37.5460  -61.6010 C.3   242  TYR242      0.1736
    131  C         10.5860   36.5740  -60.6520 C.2   242  TYR242      0.2595
    132  O          9.9120   35.7360  -60.0300 O.2   242  TYR242     -0.2718
    133  CB         8.9610   38.4480  -60.8630 C.3   242  TYR242      0.0548
    134  CG         9.5640   39.3160  -59.8100 C.ar  242  TYR242     -0.0200
    135  CD1       10.7130   40.0840  -59.9700 C.ar  242  TYR242     -0.0009
    136  CD2        8.9100   39.3710  -58.5690 C.ar  242  TYR242     -0.0009
    137  CE1       11.2260   40.8970  -58.9390 C.ar  242  TYR242      0.0417
    138  CE2        9.4250   40.1590  -57.5610 C.ar  242  TYR242      0.0417
    139  CZ        10.5550   40.9150  -57.7170 C.ar  242  TYR242      0.1957
    140  OH        11.0480   41.6920  -56.6850 O.3   242  TYR242     -0.2866
    141  N         11.9000   36.6640  -60.4890 N.am  243  HIS243     -0.1975
    142  CA        12.6690   35.8490  -59.5630 C.3   243  HIS243      0.1656
    143  C         12.5330   34.3570  -59.7940 C.2   243  HIS243      0.2291
    144  O         12.7430   33.5510  -58.8990 O.2   243  HIS243     -0.2864
    145  CB        12.2980   36.2020  -58.0930 C.3   243  HIS243      0.0771
    146  CG        12.8510   37.5380  -57.7160 C.ar  243  HIS243      0.0820
    147  ND1       12.6230   38.0890  -56.4760 N.ar  243  HIS243     -0.2267
    148  CD2       13.6540   38.4080  -58.3670 C.ar  243  HIS243      0.1154
    149  CE1       13.2330   39.2690  -56.3930 C.ar  243  HIS243      0.1986
    150  NE2       13.8850   39.4990  -57.5560 N.ar  243  HIS243     -0.2212
@<TRIPOS>BOND
     1    47    48    2
     2    47    46    1
     3   104   103    2
     4   103   102    1
     5   101   102    1
     6    46    45    1
     7    46    49    1
     8    11    12    1
     9   102   105    1
    10    45    39   am
    11    49    50    1
    12    12    13    1
    13    12    15    1
    14    37    38    1
    15    39    38    1
    16    39    40    2
    17    13    14    2
    18   105   106    1
    19    50    51    1
    20    52    51    1
    21    38    41    1
    22   129   130    1
    23     4     3    2
    24    15    16    1
    25   106   107   ar
    26   106   108   ar
    27   107   109   ar
    28    53    54    1
    29   115   114    2
    30   112   113    1
    31   120   119    2
    32   108   110   ar
    33   130   133    1
    34   130   131    1
    35   109   111   ar
    36   113   114    1
    37   113   116    1
    38     3     2    1
    39    41    42    1
    40    56    55    2
    41    43    42   ar
    42     1     2    1
    43    17    16   ar
    44    16    18   ar
    45   110   111   ar
    46    59    61   ar
    47    59    58   ar
    48    61    63   ar
    49   133   134    1
    50    54    55    1
    51    54    57    1
    52   119   118    1
    53   131   141   am
    54   131   132    2
    55    65    66    1
    56    42    44   ar
    57     2     5    1
    58   141   142    1
    59    58    57    1
    60    58    60   ar
    61    63    64    1
    62    63    62   ar
    63    69    66    1
    64    69    70    1
    65   135   134   ar
    66   135   137   ar
    67    66    67    1
    68   134   136   ar
    69   143   142    1
    70   143   144    2
    71    70    71    1
    72    10     9   ar
    73    10     8   ar
    74     9     7   ar
    75   142   145    1
    76    60    62   ar
    77     8     6   ar
    78     7     6   ar
    79   117   118    1
    80     6     5    1
    81   118   121    1
    82    84    82    1
    83   121   122    1
    84   137   139   ar
    85    83    82    1
    86    72    71   ar
    87   136   138   ar
    88    67    68    2
    89    71    73   ar
    90    82    81    2
    91   148   146   ar
    92   148   150   ar
    93    90    89    1
    94   145   146    1
    95    36    34   ar
    96   139   138   ar
    97   139   140    1
    98   146   147   ar
    99   122   124   ar
   100   122   123   ar
   101   150   149   ar
   102    81    80    1
   103    89    86    1
   104   124   126   ar
   105    95    96    1
   106    95    92    1
   107    34    33    1
   108    34    35   ar
   109   123   125   ar
   110    97    96   ar
   111    97    99   ar
   112    33    32    1
   113    96    98   ar
   114   147   149   ar
   115    91    92    1
   116    26    25   ar
   117    80    79    1
   118    99   100   ar
   119    23    24    1
   120    23    20    1
   121    92    93    1
   122    98   100   ar
   123    24    25    1
   124    25    27   ar
   125   126   127   ar
   126    86    87    1
   127    86    85    1
   128    79    78    1
   129   125   127   ar
   130    87    88    2
   131    77    76    2
   132    32    29    1
   133    19    20    1
   134   127   128    1
   135    20    21    1
   136    85    76   am
   137    76    75    1
   138    28    21   am
   139    28    29    1
   140    93    94    2
   141    78    75    1
   142    21    22    2
   143    29    30    1
   144    75    74    1
   145    30    31    2
