@<TRIPOS>MOLECULE
tmp/1tkgA00.pdb
 150 146 0 0 0
SMALL
GASTEIGER

@<TRIPOS>ATOM
      1  N          2.1270   -5.5700   22.3930 N.3    73  HIS73      -0.1241
      2  CA         1.2760   -4.5810   21.7390 C.3    73  HIS73       0.1621
      3  C          2.1000   -3.4790   21.1070 C.2    73  HIS73       0.2264
      4  O          1.8080   -3.0390   19.9880 O.2    73  HIS73      -0.2867
      5  CB         0.2810   -3.9810   22.7320 C.3    73  HIS73       0.0745
      6  CG        -0.9950   -3.5340   22.0930 C.ar   73  HIS73       0.0817
      7  ND1       -2.1100   -3.1820   22.8230 N.ar   73  HIS73      -0.2268
      8  CD2       -1.3360   -3.3920   20.7890 C.ar   73  HIS73       0.1154
      9  CE1       -3.0850   -2.8440   21.9950 C.ar   73  HIS73       0.1986
     10  NE2       -2.6400   -2.9620   20.7560 N.ar   73  HIS73      -0.2212
     11  N          3.5210   -4.2360   17.8640 N.3    76  ALA76      -0.1231
     12  CA         2.6010   -4.0910   16.7410 C.3    76  ALA76       0.1694
     13  C          2.7680   -2.6470   16.2420 C.2    76  ALA76       0.2592
     14  O          2.7990   -2.3860   15.0280 O.2    76  ALA76      -0.2718
     15  CB         1.1690   -4.3430   17.2000 C.3    76  ALA76       0.0304
     16  N          2.8770   -1.6990   17.1710 N.am   77  HIS77      -0.1976
     17  CA         3.0870   -0.3110   16.7550 C.3    77  HIS77       0.1656
     18  C          4.4270   -0.1920   16.0220 C.2    77  HIS77       0.2291
     19  O          4.5390    0.5430   15.0460 O.2    77  HIS77      -0.2864
     20  CB         3.0740    0.6340   17.9590 C.3    77  HIS77       0.0771
     21  CG         1.7000    0.9590   18.4520 C.ar   77  HIS77       0.0820
     22  ND1        1.4460    2.0060   19.3130 N.ar   77  HIS77      -0.2267
     23  CD2        0.5020    0.3890   18.1860 C.ar   77  HIS77       0.1154
     24  CE1        0.1490    2.0680   19.5510 C.ar   77  HIS77       0.1986
     25  NE2       -0.4480    1.1000   18.8790 N.ar   77  HIS77      -0.2212
     26  N         -6.0120   -3.2210   11.8970 N.3    94  ILE94      -0.1231
     27  CA        -6.0480   -3.5760   13.3200 C.3    94  ILE94       0.1692
     28  C         -4.8280   -4.4360   13.6600 C.2    94  ILE94       0.2593
     29  O         -4.4690   -5.3300   12.8990 O.2    94  ILE94      -0.2718
     30  CB        -7.3590   -4.3450   13.6510 C.3    94  ILE94       0.0266
     31  CG1       -8.5670   -3.4450   13.3950 C.3    94  ILE94       0.0019
     32  CG2       -7.3600   -4.8040   15.1030 C.3    94  ILE94       0.0020
     33  CD1       -9.8990   -4.1680   13.5180 C.3    94  ILE94       0.0001
     34  N         -4.1900   -4.1570   14.7930 N.am   95  GLY95      -0.1943
     35  CA        -3.0060   -4.9200   15.1880 C.3    95  GLY95       0.1998
     36  C         -2.9880   -5.1630   16.6900 C.2    95  GLY95       0.2480
     37  O         -2.3870   -4.4040   17.4490 O.2    95  GLY95      -0.2729
     38  N         -3.6140   -6.2450   17.1490 N.am   96  PRO96      -0.2726
     39  CA        -3.6730   -6.5580   18.5750 C.3    96  PRO96       0.1402
     40  C         -2.6380   -7.5060   19.1240 C.2    96  PRO96       0.2269
     41  O         -1.8820   -8.1370   18.3890 O.2    96  PRO96      -0.2865
     42  CB        -5.0490   -7.1720   18.7050 C.3    96  PRO96       0.0296
     43  CG        -5.0790   -8.0450   17.4600 C.3    96  PRO96       0.0237
     44  CD        -4.4940   -7.1460   16.3800 C.3    96  PRO96       0.0939
     45  N         -0.5290   -7.6460   12.8290 N.3   104  TYR104     -0.1241
     46  CA        -1.0440   -6.3930   12.2920 C.3   104  TYR104      0.1605
     47  C         -1.5990   -6.6830   10.9100 C.2   104  TYR104      0.2264
     48  O         -0.9060   -7.2620   10.0620 O.2   104  TYR104     -0.2867
     49  CB         0.0300   -5.2940   12.1820 C.3   104  TYR104      0.0534
     50  CG        -0.5070   -3.9000   12.4850 C.ar  104  TYR104     -0.0201
     51  CD1       -1.7360   -3.4750   11.9750 C.ar  104  TYR104     -0.0009
     52  CD2        0.1790   -3.0360   13.3470 C.ar  104  TYR104     -0.0009
     53  CE1       -2.2710   -2.2320   12.3270 C.ar  104  TYR104      0.0417
     54  CE2       -0.3520   -1.7860   13.7080 C.ar  104  TYR104      0.0417
     55  CZ        -1.5790   -1.3990   13.1960 C.ar  104  TYR104      0.1957
     56  OH        -2.1500   -0.2010   13.5890 O.3   104  TYR104     -0.2866
     57  N         -8.3030    3.3210    9.7870 N.3   156  LYS156     -0.1245
     58  CA        -8.3500    3.9780   11.0930 C.3   156  LYS156      0.1561
     59  C         -9.5290    4.9510   11.1060 C.2   156  LYS156      0.2260
     60  O        -10.2150    5.0880   12.1170 O.2   156  LYS156     -0.2867
     61  CB        -7.0430    4.7140   11.3780 C.3   156  LYS156      0.0271
     62  CG        -5.8020    3.8030   11.5070 C.3   156  LYS156      0.0035
     63  CD        -5.9770    2.7120   12.5580 C.3   156  LYS156      0.0206
     64  CE        -4.6660    1.9640   12.7580 C.3   156  LYS156      0.1093
     65  NZ        -4.8210    0.8270   13.7120 N.3   156  LYS156     -0.1314
     66  N        -12.6380    3.0270   11.6260 N.3   159  ILE159     -0.1245
     67  CA       -12.7430    2.6250   13.0230 C.3   159  ILE159      0.1561
     68  C        -13.3400    3.7840   13.8260 C.2   159  ILE159      0.2260
     69  O        -14.2090    3.5750   14.6710 O.2   159  ILE159     -0.2867
     70  CB       -11.3630    2.2160   13.5810 C.3   159  ILE159      0.0252
     71  CG1      -10.9640    0.8660   12.9830 C.3   159  ILE159      0.0019
     72  CG2      -11.4080    2.1130   15.1070 C.3   159  ILE159      0.0019
     73  CD1       -9.5410    0.4640   13.2580 C.3   159  ILE159      0.0001
     74  N        -16.6570    2.5800   15.2050 N.3   163  ASN163     -0.1225
     75  CA       -16.3750    1.9390   16.4830 C.3   163  ASN163      0.1785
     76  C        -15.9400    2.7720   17.6730 C.2   163  ASN163      0.2597
     77  O        -15.6570    2.2230   18.7380 O.2   163  ASN163     -0.2718
     78  CB       -15.3490    0.8310   16.2360 C.3   163  ASN163      0.1169
     79  CG       -15.6880   -0.0030   15.0100 C.2   163  ASN163      0.2627
     80  OD1      -14.9810    0.0330   13.9950 O.2   163  ASN163     -0.2716
     81  ND2      -16.7820   -0.7500   15.0940 N.am  163  ASN163     -0.0877
     82  N        -15.8720    4.0830   17.5060 N.am  164  ILE164     -0.1980
     83  CA       -15.4830    4.9380   18.6160 C.3   164  ILE164      0.1595
     84  C        -16.5010    6.0600   18.7290 C.2   164  ILE164      0.2287
     85  O        -16.7680    6.7590   17.7560 O.2   164  ILE164     -0.2864
     86  CB       -14.0720    5.5320   18.4090 C.3   164  ILE164      0.0276
     87  CG1      -13.0510    4.3970   18.2450 C.3   164  ILE164      0.0022
     88  CG2      -13.7050    6.4130   19.6000 C.3   164  ILE164      0.0022
     89  CD1      -11.6010    4.8590   18.1160 C.3   164  ILE164      0.0001
     90  N        -15.9380    9.9080   23.1290 N.3   168  ASP168     -0.1225
     91  CA       -14.7640    9.2180   23.6580 C.3   168  ASP168      0.1805
     92  C        -13.5330    9.9980   23.2340 C.2   168  ASP168      0.2598
     93  O        -13.5670   10.7170   22.2370 O.2   168  ASP168     -0.2718
     94  CB       -14.6480    7.7930   23.1050 C.3   168  ASP168      0.1424
     95  CG       -15.8230    6.9230   23.4790 C.2   168  ASP168      0.3668
     96  OD1      -16.3150    7.0510   24.6210 O.co2 168  ASP168     -0.2456
     97  OD2      -16.2420    6.1010   22.6330 O.co2 168  ASP168     -0.2456
     98  N        -12.4460    9.8500   23.9840 N.am  169  LYS169     -0.1966
     99  CA       -11.2100   10.5410   23.6550 C.3   169  LYS169      0.1713
    100  C        -10.1760    9.5180   23.2040 C.2   169  LYS169      0.2458
    101  O         -9.5760    8.8100   24.0190 O.2   169  LYS169     -0.2730
    102  CB       -10.7030   11.3260   24.8670 C.3   169  LYS169      0.0311
    103  CG       -11.7240   12.3280   25.4120 C.3   169  LYS169      0.0038
    104  CD       -12.2640   13.2560   24.3270 C.3   169  LYS169      0.0206
    105  CE       -13.4510   14.0690   24.8390 C.3   169  LYS169      0.1093
    106  NZ       -14.1120   14.8820   23.7730 N.3   169  LYS169     -0.1314
    107  N         -9.9740    9.4070   21.8850 N.am  170  PRO170     -0.2716
    108  CA        -8.9980    8.4450   21.3700 C.3   170  PRO170      0.1536
    109  C         -7.5920    8.6540   21.9080 C.2   170  PRO170      0.2599
    110  O         -7.1260    9.7870   22.0610 O.2   170  PRO170     -0.2715
    111  CB        -9.0580    8.6690   19.8600 C.3   170  PRO170      0.0310
    112  CG       -10.4690    9.0750   19.6330 C.3   170  PRO170      0.0237
    113  CD       -10.7280   10.0320   20.7800 C.3   170  PRO170      0.0939
    114  N         -6.9140    7.5500   22.1970 N.am  171  GLY171     -0.1955
    115  CA        -5.5490    7.6470   22.6610 C.3   171  GLY171      0.1869
    116  C         -4.6180    7.5320   21.4660 C.2   171  GLY171      0.2309
    117  O         -4.6580    6.5390   20.7370 O.2   171  GLY171     -0.2863
    118  N         -0.2570    5.8640   15.9920 N.3   180  ASP180     -0.1225
    119  CA        -1.2770    4.8310   16.0240 C.3   180  ASP180      0.1805
    120  C         -2.3320    5.2340   17.0600 C.2   180  ASP180      0.2598
    121  O         -2.1640    6.2190   17.7890 O.2   180  ASP180     -0.2718
    122  CB        -0.6690    3.4580   16.3610 C.3   180  ASP180      0.1424
    123  CG        -1.3580    2.3170   15.6190 C.2   180  ASP180      0.3668
    124  OD1       -2.6010    2.2540   15.6240 O.co2 180  ASP180     -0.2456
    125  OD2       -0.6500    1.4690   15.0260 O.co2 180  ASP180     -0.2456
    126  N         -3.4090    4.4650   17.1180 N.am  181  MET181     -0.1965
    127  CA        -4.5340    4.7580   18.0070 C.3   181  MET181      0.1736
    128  C         -4.8180    3.5340   18.8690 C.2   181  MET181      0.2617
    129  O         -4.9210    2.4160   18.3610 O.2   181  MET181     -0.2715
    130  CB        -5.7360    5.1270   17.1390 C.3   181  MET181      0.0427
    131  CG        -7.0210    5.3840   17.8830 C.3   181  MET181      0.0599
    132  SD        -8.2410    6.1340   16.7660 S.3   181  MET181     -0.1393
    133  CE        -8.5160    4.7780   15.6010 C.3   181  MET181      0.0692
    134  N         -4.9700    3.7370   20.1740 N.am  182  CYS182     -0.1954
    135  CA        -5.1580    2.5850   21.0340 C.3   182  CYS182      0.1843
    136  C         -5.6520    2.9060   22.4350 C.2   182  CYS182      0.2625
    137  O         -5.5870    4.0460   22.8810 O.2   182  CYS182     -0.2714
    138  CB        -3.8020    1.8730   21.1480 C.3   182  CYS182      0.0997
    139  SG        -3.8220    0.1570   21.6960 S.3   182  CYS182     -0.0797
    140  N         -6.1410    1.8750   23.1160 N.am  183  ARG183     -0.1977
    141  CA        -6.5400    2.0140   24.5090 C.3   183  ARG183      0.1597
    142  C         -5.2690    1.7750   25.3340 C.2   183  ARG183      0.2287
    143  O         -5.1790    2.2000   26.4850 O.2   183  ARG183     -0.2864
    144  CB        -7.6020    0.9780   24.8980 C.3   183  ARG183      0.0334
    145  CG        -8.9490    1.1940   24.2350 C.3   183  ARG183      0.0492
    146  CD        -9.9910    0.2490   24.8100 C.3   183  ARG183      0.2205
    147  NE       -10.1710    0.4620   26.2420 N.pl3 183  ARG183     -0.0865
    148  CZ       -11.0180   -0.2260   27.0010 C.cat 183  ARG183      0.5346
    149  NH1      -11.7710   -1.1780   26.4630 N.pl3 183  ARG183      0.1354
    150  NH2      -11.1120    0.0360   28.2990 N.pl3 183  ARG183      0.1354
@<TRIPOS>BOND
     1    57    58    1
     2    48    47    2
     3    47    46    1
     4    58    59    1
     5    58    61    1
     6    59    60    2
     7    61    62    1
     8    62    63    1
     9    66    67    1
    10    26    27    1
    11    51    53   ar
    12    51    50   ar
    13    49    46    1
    14    49    50    1
    15    46    45    1
    16    53    55   ar
    17    50    52   ar
    18    63    64    1
    19    64    65    1
    20    29    28    2
    21    71    73    1
    22    71    70    1
    23    67    70    1
    24    67    68    1
    25    55    56    1
    26    55    54   ar
    27    27    30    1
    28    27    28    1
    29    52    54   ar
    30    31    33    1
    31    31    30    1
    32    70    72    1
    33    30    32    1
    34    28    34   am
    35    68    69    2
    36    80    79    2
    37    34    35    1
    38    79    81   am
    39    79    78    1
    40   125   123   ar
    41    14    13    2
    42    19    18    2
    43    35    36    1
    44    74    75    1
    45   133   132    1
    46   123   124   ar
    47   123   122    1
    48   118   119    1
    49    18    17    1
    50   119   122    1
    51   119   120    1
    52    78    75    1
    53    13    12    1
    54    13    16   am
    55    44    38    1
    56    44    43    1
    57    75    76    1
    58    36    38   am
    59    36    37    2
    60    12    15    1
    61    12    11    1
    62    17    16    1
    63    17    20    1
    64   132   131    1
    65   120   126   am
    66   120   121    2
    67   126   127    1
    68   130   131    1
    69   130   127    1
    70    38    39    1
    71    43    42    1
    72    82    76   am
    73    82    83    1
    74    76    77    2
    75    85    84    2
    76    20    21    1
    77   127   128    1
    78    89    87    1
    79    23    21   ar
    80    23    25   ar
    81    87    86    1
    82   129   128    2
    83    41    40    2
    84    86    83    1
    85    86    88    1
    86    21    22   ar
    87    39    42    1
    88    39    40    1
    89    83    84    1
    90   128   134   am
    91    25    24   ar
    92    22    24   ar
    93   112   111    1
    94   112   113    1
    95   111   108    1
    96     4     3    2
    97   134   135    1
    98   117   116    2
    99    10     8   ar
   100    10     9   ar
   101   113   107    1
   102     8     6   ar
   103   135   138    1
   104   135   136    1
   105     3     2    1
   106   138   139    1
   107   108   107    1
   108   108   109    1
   109   116   115    1
   110     2     1    1
   111     2     5    1
   112   107   100   am
   113   109   110    2
   114   109   114   am
   115     9     7   ar
   116     6     5    1
   117     6     7   ar
   118   114   115    1
   119    93    92    2
   120   136   137    2
   121   136   140   am
   122    97    95   ar
   123    94    95    1
   124    94    91    1
   125   140   141    1
   126    90    91    1
   127   100    99    1
   128   100   101    2
   129    92    91    1
   130    92    98   am
   131    95    96   ar
   132    99    98    1
   133    99   102    1
   134   106   105    1
   135   145   146    1
   136   145   144    1
   137   104   105    1
   138   104   103    1
   139   141   144    1
   140   141   142    1
   141   146   147    1
   142   102   103    1
   143   142   143    2
   144   147   148    2
   145   149   148    1
   146   148   150    1
