@<TRIPOS>MOLECULE
tmp/1tkjA00.pdb
 150 144 0 0 0
SMALL
GASTEIGER

@<TRIPOS>ATOM
      1  N          8.6180  -16.9770  -61.2090 N.3    85  HIS85      -0.1241
      2  CA         7.9930  -15.8100  -60.5610 C.3    85  HIS85       0.1621
      3  C          7.7810  -14.6930  -61.5670 C.2    85  HIS85       0.2264
      4  O          8.6290  -14.4120  -62.4260 O.2    85  HIS85      -0.2867
      5  CB         8.7980  -15.3290  -59.3410 C.3    85  HIS85       0.0745
      6  CG        10.0770  -14.6040  -59.5340 C.ar   85  HIS85       0.0817
      7  ND1       10.1980  -13.2270  -59.5970 N.ar   85  HIS85      -0.2268
      8  CD2       11.3390  -15.0690  -59.6720 C.ar   85  HIS85       0.1154
      9  CE1       11.4580  -12.9040  -59.7340 C.ar   85  HIS85       0.1986
     10  NE2       12.2090  -14.0020  -59.7900 N.ar   85  HIS85      -0.2212
     11  N         14.9180  -10.7320  -64.9150 N.3    97  ASP97      -0.1239
     12  CA        14.5170  -11.2610  -63.6200 C.3    97  ASP97       0.1674
     13  C         13.1230  -10.7590  -63.2950 C.2    97  ASP97       0.2266
     14  O         12.9820   -9.6900  -62.6620 O.2    97  ASP97      -0.2867
     15  CB        15.5030  -10.8150  -62.5330 C.3    97  ASP97       0.1410
     16  CG        15.1980  -11.5260  -61.2120 C.2    97  ASP97       0.3668
     17  OD1       14.4960  -12.5650  -61.2400 O.co2  97  ASP97      -0.2456
     18  OD2       15.6670  -10.9760  -60.1910 O.co2  97  ASP97      -0.2456
     19  N          7.9740  -13.1940  -55.1630 N.3   131  GLU131     -0.1231
     20  CA         9.2060  -13.9180  -54.9210 C.3   131  GLU131      0.1699
     21  C         10.2560  -12.9740  -54.3680 C.2   131  GLU131      0.2592
     22  O         11.1030  -13.3990  -53.5530 O.2   131  GLU131     -0.2718
     23  CB         9.6780  -14.5330  -56.2690 C.3   131  GLU131      0.0402
     24  CG        10.8900  -15.4290  -56.1150 C.3   131  GLU131      0.1161
     25  CD        12.2420  -14.7880  -56.1820 C.2   131  GLU131      0.3649
     26  OE1       12.3380  -13.5850  -56.4850 O.co2 131  GLU131     -0.2457
     27  OE2       13.2290  -15.5460  -55.8420 O.co2 131  GLU131     -0.2457
     28  N         10.2650  -11.7140  -54.7850 N.am  132  GLU132     -0.1979
     29  CA        11.3250  -10.7920  -54.3750 C.3   132  GLU132      0.1602
     30  C         11.1680  -10.4080  -52.9090 C.2   132  GLU132      0.2287
     31  O         12.1270   -9.8330  -52.3770 O.2   132  GLU132     -0.2864
     32  CB        11.3620   -9.5670  -55.2830 C.3   132  GLU132      0.0415
     33  CG        11.6590   -9.8830  -56.7440 C.3   132  GLU132      0.1163
     34  CD        13.0710  -10.3160  -56.9920 C.2   132  GLU132      0.3649
     35  OE1       13.8960  -10.4640  -56.0760 O.co2 132  GLU132     -0.2457
     36  OE2       13.3900  -10.5210  -58.2300 O.co2 132  GLU132     -0.2457
     37  N         13.9610  -19.1620  -63.4730 N.3   160  ASP160     -0.1225
     38  CA        14.1760  -17.8380  -62.8500 C.3   160  ASP160      0.1805
     39  C         15.5070  -17.2610  -63.3210 C.2   160  ASP160      0.2597
     40  O         16.5360  -17.7420  -62.8530 O.2   160  ASP160     -0.2718
     41  CB        14.1020  -17.9790  -61.3400 C.3   160  ASP160      0.1424
     42  CG        14.2240  -16.6940  -60.5880 C.2   160  ASP160      0.3668
     43  OD1       14.3900  -15.6010  -61.2310 O.co2 160  ASP160     -0.2456
     44  OD2       14.1620  -16.6820  -59.3670 O.co2 160  ASP160     -0.2456
     45  N         15.4390  -16.3450  -64.2920 N.am  161  MET161     -0.1979
     46  CA        16.5720  -15.6900  -64.9580 C.3   161  MET161      0.1605
     47  C         17.1910  -16.6510  -65.9510 C.2   161  MET161      0.2287
     48  O         18.0960  -17.4410  -65.6090 O.2   161  MET161     -0.2864
     49  CB        17.6320  -15.1640  -63.9940 C.3   161  MET161      0.0413
     50  CG        17.0680  -14.1050  -63.0750 C.3   161  MET161      0.0598
     51  SD        18.2360  -13.4010  -61.9010 S.3   161  MET161     -0.1393
     52  CE        19.3190  -12.5350  -63.0430 C.3   161  MET161      0.0692
     53  N         19.9840  -26.9560  -62.4080 N.3   172  TYR172     -0.1241
     54  CA        19.9340  -27.3160  -60.9760 C.3   172  TYR172      0.1605
     55  C         20.3790  -28.7580  -60.7880 C.2   172  TYR172      0.2264
     56  O         20.0280  -29.6430  -61.5860 O.2   172  TYR172     -0.2867
     57  CB        18.5600  -27.1370  -60.3650 C.3   172  TYR172      0.0534
     58  CG        17.9380  -25.7690  -60.3960 C.ar  172  TYR172     -0.0201
     59  CD1       18.4500  -24.6680  -61.0980 C.ar  172  TYR172     -0.0009
     60  CD2       16.7500  -25.5840  -59.6510 C.ar  172  TYR172     -0.0009
     61  CE1       17.7650  -23.4360  -61.0390 C.ar  172  TYR172      0.0417
     62  CE2       16.0990  -24.3740  -59.6230 C.ar  172  TYR172      0.0417
     63  CZ        16.6240  -23.2940  -60.2970 C.ar  172  TYR172      0.1957
     64  OH        15.9130  -22.1210  -60.2710 O.3   172  TYR172     -0.2866
     65  N         24.1380  -25.5280  -60.9910 N.3   196  GLU196     -0.1245
     66  CA        23.7500  -24.2320  -60.4130 C.3   196  GLU196      0.1567
     67  C         24.3030  -24.1540  -58.9790 C.2   196  GLU196      0.2260
     68  O         23.9490  -24.9550  -58.1330 O.2   196  GLU196     -0.2867
     69  CB        22.2380  -24.1020  -60.4820 C.3   196  GLU196      0.0388
     70  CG        21.6190  -22.7200  -60.4460 C.3   196  GLU196      0.1160
     71  CD        21.9900  -21.8960  -59.2310 C.2   196  GLU196      0.3649
     72  OE1       21.7820  -22.4340  -58.0980 O.co2 196  GLU196     -0.2457
     73  OE2       22.5680  -20.8160  -59.3700 O.co2 196  GLU196     -0.2457
     74  N         22.6290  -19.2830  -57.2300 N.3   199  GLY199     -0.1210
     75  CA        21.3970  -18.9270  -56.5250 C.3   199  GLY199      0.1956
     76  C         20.9520  -19.9330  -55.4930 C.2   199  GLY199      0.2611
     77  O         20.1300  -19.5780  -54.6330 O.2   199  GLY199     -0.2717
     78  N         21.4250  -21.1880  -55.5490 N.am  200  ASP200     -0.1973
     79  CA        21.0200  -22.1940  -54.6000 C.3   200  ASP200      0.1709
     80  C         19.4990  -22.3870  -54.4820 C.2   200  ASP200      0.2293
     81  O         18.7710  -22.5960  -55.4650 O.2   200  ASP200     -0.2864
     82  CB        21.5930  -21.7480  -53.2490 C.3   200  ASP200      0.1436
     83  CG        23.0990  -21.5730  -53.3160 C.2   200  ASP200      0.3671
     84  OD1       23.7670  -22.5910  -53.6650 O.co2 200  ASP200     -0.2456
     85  OD2       23.6860  -20.4640  -53.2020 O.co2 200  ASP200     -0.2456
     86  N         17.6430  -19.9250  -53.4840 N.3   202  ARG202     -0.1231
     87  CA        16.9730  -18.6250  -53.4580 C.3   202  ARG202      0.1694
     88  C         15.9990  -18.4250  -54.5980 C.2   202  ARG202      0.2592
     89  O         16.0710  -17.4140  -55.2880 O.2   202  ARG202     -0.2718
     90  CB        18.0430  -17.5220  -53.4360 C.3   202  ARG202      0.0321
     91  CG        18.9480  -17.5850  -52.2290 C.3   202  ARG202      0.0489
     92  CD        19.7680  -16.3280  -52.0720 C.3   202  ARG202      0.2205
     93  NE        20.8550  -16.1820  -53.0430 N.pl3 202  ARG202     -0.0865
     94  CZ        20.8590  -15.1060  -53.8330 C.cat 202  ARG202      0.5346
     95  NH1       19.8670  -14.2320  -53.6840 N.pl3 202  ARG202      0.1354
     96  NH2       21.8400  -14.9530  -54.7190 N.pl3 202  ARG202      0.1354
     97  N         15.1060  -19.3830  -54.8600 N.am  203  SER203     -0.1952
     98  CA        14.0460  -19.1620  -55.8240 C.3   203  SER203      0.1924
     99  C         12.8990  -20.1120  -55.4720 C.2   203  SER203      0.2314
    100  O         12.9290  -20.8200  -54.4540 O.2   203  SER203     -0.2863
    101  CB        14.5430  -19.3630  -57.2710 C.3   203  SER203      0.2116
    102  OG        13.5290  -18.9900  -58.1850 O.3   203  SER203     -0.2180
    103  N         11.6280  -22.8750  -56.4060 N.3   205  HIS205     -0.1241
    104  CA        11.7160  -24.3060  -56.2020 C.3   205  HIS205      0.1621
    105  C         11.9230  -24.6590  -54.7180 C.2   205  HIS205      0.2264
    106  O         11.6110  -25.7840  -54.3260 O.2   205  HIS205     -0.2867
    107  CB        12.8220  -24.9400  -57.0020 C.3   205  HIS205      0.0745
    108  CG        14.1860  -24.4100  -56.6620 C.ar  205  HIS205      0.0817
    109  ND1       14.4850  -23.0710  -56.6910 N.ar  205  HIS205     -0.2268
    110  CD2       15.2920  -25.0930  -56.3560 C.ar  205  HIS205      0.1154
    111  CE1       15.7630  -22.9460  -56.3670 C.ar  205  HIS205      0.1986
    112  NE2       16.2790  -24.1470  -56.1770 N.ar  205  HIS205     -0.2212
    113  N         19.0530  -21.7300  -65.1450 N.3   219  PHE219     -0.1241
    114  CA        19.4760  -20.3920  -64.7080 C.3   219  PHE219      0.1605
    115  C         20.6580  -19.9520  -65.5700 C.2   219  PHE219      0.2264
    116  O         21.5230  -20.7920  -65.8730 O.2   219  PHE219     -0.2867
    117  CB        19.9220  -20.4720  -63.2600 C.3   219  PHE219      0.0534
    118  CG        20.5170  -19.2340  -62.6050 C.ar  219  PHE219     -0.0203
    119  CD1       19.7880  -18.0340  -62.5920 C.ar  219  PHE219     -0.0042
    120  CD2       21.7330  -19.3270  -61.9600 C.ar  219  PHE219     -0.0042
    121  CE1       20.3340  -16.9590  -61.9020 C.ar  219  PHE219     -0.0003
    122  CE2       22.2710  -18.2490  -61.2720 C.ar  219  PHE219     -0.0003
    123  CZ        21.5460  -17.0600  -61.2190 C.ar  219  PHE219     -0.0000
    124  N         23.4530  -14.3530  -62.4500 N.3   222  ALA222     -0.1245
    125  CA        22.9730  -13.0570  -61.9330 C.3   222  ALA222      0.1562
    126  C         24.1650  -12.1500  -61.6960 C.2   222  ALA222      0.2260
    127  O         24.9430  -11.8820  -62.6000 O.2   222  ALA222     -0.2867
    128  CB        22.0260  -13.2440  -60.7350 C.3   222  ALA222      0.0290
    129  N         21.1230   -6.8410  -62.8860 N.3   246  TYR246     -0.1227
    130  CA        20.3950   -7.5820  -61.8710 C.3   246  TYR246      0.1736
    131  C         19.7380   -6.6130  -60.8950 C.2   246  TYR246      0.2595
    132  O         20.3870   -5.7540  -60.3100 O.2   246  TYR246     -0.2718
    133  CB        21.3870   -8.4650  -61.1270 C.3   246  TYR246      0.0548
    134  CG        20.8000   -9.3220  -60.0430 C.ar  246  TYR246     -0.0200
    135  CD1       19.7060  -10.1620  -60.1960 C.ar  246  TYR246     -0.0009
    136  CD2       21.3800   -9.2930  -58.7910 C.ar  246  TYR246     -0.0009
    137  CE1       19.1940  -10.9530  -59.1920 C.ar  246  TYR246      0.0417
    138  CE2       20.8880  -10.0710  -57.7620 C.ar  246  TYR246      0.0417
    139  CZ        19.8150  -10.9060  -57.9550 C.ar  246  TYR246      0.1957
    140  OH        19.3520  -11.6180  -56.8920 O.3   246  TYR246     -0.2866
    141  N         18.4330   -6.7370  -60.7390 N.am  247  HIS247     -0.1975
    142  CA        17.6490   -5.9360  -59.7800 C.3   247  HIS247      0.1656
    143  C         17.7500   -4.4370  -60.0510 C.2   247  HIS247      0.2291
    144  O         17.5300   -3.6440  -59.1170 O.2   247  HIS247     -0.2864
    145  CB        18.0860   -6.2790  -58.3340 C.3   247  HIS247      0.0771
    146  CG        17.5120   -7.6310  -57.9680 C.ar  247  HIS247      0.0820
    147  ND1       17.7670   -8.1980  -56.7230 N.ar  247  HIS247     -0.2267
    148  CD2       16.7230   -8.5340  -58.5610 C.ar  247  HIS247      0.1154
    149  CE1       17.1340   -9.3550  -56.6360 C.ar  247  HIS247      0.1986
    150  NE2       16.4750   -9.6140  -57.7550 N.ar  247  HIS247     -0.2212
@<TRIPOS>BOND
     1    47    48    2
     2    47    46    1
     3   116   115    2
     4   115   114    1
     5   113   114    1
     6    46    45    1
     7    46    49    1
     8    11    12    1
     9   114   117    1
    10    45    39   am
    11    49    50    1
    12    12    13    1
    13    12    15    1
    14    37    38    1
    15    39    40    2
    16    39    38    1
    17    13    14    2
    18   117   118    1
    19    50    51    1
    20    52    51    1
    21   129   130    1
    22    38    41    1
    23   118   119   ar
    24   118   120   ar
    25   127   126    2
    26   119   121   ar
    27    15    16    1
    28   124   125    1
    29     4     3    2
    30    53    54    1
    31   120   122   ar
    32   125   126    1
    33   125   128    1
    34   121   123   ar
    35   130   133    1
    36   130   131    1
    37    56    55    2
    38     3     2    1
    39    41    42    1
    40   122   123   ar
    41    17    16   ar
    42    43    42   ar
    43    16    18   ar
    44     1     2    1
    45   133   134    1
    46    59    61   ar
    47    59    58   ar
    48    61    63   ar
    49    65    66    1
    50    54    55    1
    51    54    57    1
    52   131   141   am
    53   131   132    2
    54   141   142    1
    55    42    44   ar
    56     2     5    1
    57    69    70    1
    58    69    66    1
    59    70    71    1
    60    66    67    1
    61    58    57    1
    62    58    60   ar
    63    63    64    1
    64    63    62   ar
    65   135   134   ar
    66   135   137   ar
    67   143   142    1
    68   143   144    2
    69   134   136   ar
    70    10     9   ar
    71    10     8   ar
    72   142   145    1
    73     9     7   ar
    74     8     6   ar
    75    60    62   ar
    76     7     6   ar
    77     6     5    1
    78    73    71   ar
    79    71    72   ar
    80   137   139   ar
    81    67    68    2
    82   136   138   ar
    83   148   146   ar
    84   148   150   ar
    85   145   146    1
    86    36    34   ar
    87   102   101    1
    88   146   147   ar
    89   139   138   ar
    90   139   140    1
    91   150   149   ar
    92   101    98    1
    93    74    75    1
    94   107   108    1
    95   107   104    1
    96    34    33    1
    97    34    35   ar
    98    33    32    1
    99   147   149   ar
   100   109   108   ar
   101   109   111   ar
   102   108   110   ar
   103    75    76    1
   104    26    25   ar
   105   103   104    1
   106   111   112   ar
   107   110   112   ar
   108    23    24    1
   109    23    20    1
   110   104   105    1
   111    25    24    1
   112    25    27   ar
   113    98    99    1
   114    98    97    1
   115    78    76   am
   116    78    79    1
   117    76    77    2
   118    99   100    2
   119    81    80    2
   120    89    88    2
   121    32    29    1
   122    19    20    1
   123    20    21    1
   124    97    88   am
   125    28    29    1
   126    28    21   am
   127    96    94    1
   128   105   106    2
   129    79    80    1
   130    79    82    1
   131    88    87    1
   132    29    30    1
   133    21    22    2
   134    94    95    1
   135    94    93    2
   136    84    83   ar
   137    86    87    1
   138    87    90    1
   139    90    91    1
   140    83    82    1
   141    83    85   ar
   142    93    92    1
   143    30    31    2
   144    91    92    1
