@<TRIPOS>MOLECULE
tmp/1tkkE00.pdb
 171 156 0 0 0
SMALL
GASTEIGER

@<TRIPOS>ATOM
      1  N         29.5160  -10.9540   55.4640 N.3    19  PHE19      -0.1241
      2  CA        29.8000   -9.5750   55.0440 C.3    19  PHE19       0.1605
      3  C         29.7510   -8.6460   56.2630 C.2    19  PHE19       0.2264
      4  O         28.7490   -8.6040   56.9640 O.2    19  PHE19      -0.2867
      5  CB        28.7680   -9.1600   54.0000 C.3    19  PHE19       0.0534
      6  CG        28.9240   -7.7560   53.5040 C.ar   19  PHE19      -0.0203
      7  CD1       29.9290   -7.4260   52.6070 C.ar   19  PHE19      -0.0042
      8  CD2       28.0500   -6.7600   53.9160 C.ar   19  PHE19      -0.0042
      9  CE1       30.0540   -6.1270   52.1360 C.ar   19  PHE19      -0.0003
     10  CE2       28.1720   -5.4720   53.4450 C.ar   19  PHE19      -0.0003
     11  CZ        29.1770   -5.1570   52.5590 C.ar   19  PHE19      -0.0000
     12  N         30.6120   -4.7840   58.0410 N.3    21  THR21      -0.1218
     13  CA        30.9200   -3.3580   58.0270 C.3    21  THR21       0.1862
     14  C         30.9620   -2.8170   59.4590 C.2    21  THR21       0.2287
     15  O         30.8170   -3.5730   60.4240 O.2    21  THR21      -0.2866
     16  CB        29.8580   -2.5850   57.1930 C.3    21  THR21       0.1770
     17  OG1       28.5920   -2.6110   57.8570 O.3    21  THR21      -0.2211
     18  CG2       29.5870   -3.2680   55.8600 C.3    21  THR21       0.0375
     19  N         28.7020   -0.9810   60.5700 N.3    23  LEU23      -0.1231
     20  CA        27.2940   -0.8900   60.9490 C.3    23  LEU23       0.1693
     21  C         26.6580   -2.2400   61.2690 C.2    23  LEU23       0.2591
     22  O         25.7550   -2.3130   62.1140 O.2    23  LEU23      -0.2718
     23  CB        26.4910   -0.2250   59.8220 C.3    23  LEU23       0.0284
     24  CG        26.9460    1.1510   59.3330 C.3    23  LEU23       0.0019
     25  CD1       26.1140    1.5750   58.1220 C.3    23  LEU23       0.0001
     26  CD2       26.8540    2.1900   60.4480 C.3    23  LEU23       0.0001
     27  N         27.1090   -3.2980   60.5940 N.am   24  ARG24      -0.1980
     28  CA        26.3700   -4.5590   60.5970 C.3    24  ARG24       0.1597
     29  C         27.1640   -5.7880   60.1270 C.2    24  ARG24       0.2287
     30  O         28.2920   -5.6840   59.6510 O.2    24  ARG24      -0.2864
     31  CB        25.1070   -4.4120   59.7240 C.3    24  ARG24       0.0334
     32  CG        25.3910   -4.4180   58.2310 C.3    24  ARG24       0.0492
     33  CD        24.2620   -3.9120   57.3410 C.3    24  ARG24       0.2205
     34  NE        23.1170   -4.8190   57.3480 N.pl3  24  ARG24      -0.0865
     35  CZ        22.4580   -5.2450   56.2710 C.cat  24  ARG24       0.5346
     36  NH1       22.8070   -4.8540   55.0520 N.pl3  24  ARG24       0.1354
     37  NH2       21.4300   -6.0720   56.4220 N.pl3  24  ARG24       0.1354
     38  N         20.5050    1.2680   57.8580 N.3    54  ILE54      -0.1245
     39  CA        20.9070    2.2180   56.8400 C.3    54  ILE54       0.1561
     40  C         19.7050    3.0360   56.3980 C.2    54  ILE54       0.2260
     41  O         19.6940    4.2570   56.5510 O.2    54  ILE54      -0.2867
     42  CB        21.5470    1.5010   55.6530 C.3    54  ILE54       0.0252
     43  CG1       22.7060    0.6150   56.1270 C.3    54  ILE54       0.0019
     44  CG2       22.0350    2.5090   54.6170 C.3    54  ILE54       0.0019
     45  CD1       23.2460   -0.3170   55.0490 C.3    54  ILE54       0.0001
     46  N         34.6610   -5.9690   47.7520 N.3   135  THR135     -0.1218
     47  CA        34.7340   -5.4580   49.1060 C.3   135  THR135      0.1862
     48  C         35.3700   -6.4820   50.0470 C.2   135  THR135      0.2287
     49  O         34.9290   -7.6300   50.1400 O.2   135  THR135     -0.2866
     50  CB        33.3190   -5.0390   49.5980 C.3   135  THR135      0.1770
     51  OG1       32.7930   -3.9700   48.7790 O.3   135  THR135     -0.2211
     52  CG2       33.3750   -4.4260   50.9880 C.3   135  THR135      0.0375
     53  N         37.5600   -2.6710   47.7700 N.3   160  LYS160     -0.1245
     54  CA        36.8970   -1.7690   48.6860 C.3   160  LYS160      0.1561
     55  C         37.1040   -2.3460   50.0730 C.2   160  LYS160      0.2260
     56  O         36.5810   -3.4010   50.4010 O.2   160  LYS160     -0.2867
     57  CB        35.4060   -1.6590   48.3270 C.3   160  LYS160      0.0271
     58  CG        34.6230   -0.6460   49.1390 C.3   160  LYS160      0.0035
     59  CD        33.3370   -0.2170   48.4110 C.3   160  LYS160      0.0206
     60  CE        32.1860    0.0430   49.3950 C.3   160  LYS160      0.1093
     61  NZ        31.2580    1.1040   48.9180 N.3   160  LYS160     -0.1314
     62  N         36.6740   -2.2470   54.0570 N.3   162  LYS162     -0.1245
     63  CA        35.8460   -1.7290   55.1320 C.3   162  LYS162      0.1561
     64  C         36.6860   -1.5100   56.3860 C.2   162  LYS162      0.2260
     65  O         37.3630   -2.4250   56.8710 O.2   162  LYS162     -0.2867
     66  CB        34.7040   -2.6850   55.4350 C.3   162  LYS162      0.0271
     67  CG        33.7230   -2.8930   54.2710 C.3   162  LYS162      0.0035
     68  CD        32.6420   -1.8370   54.2650 C.3   162  LYS162      0.0206
     69  CE        31.6770   -2.0210   53.1160 C.3   162  LYS162      0.1093
     70  NZ        30.9610   -0.7570   52.7550 N.3   162  LYS162     -0.1314
     71  N         36.1530    2.3960   52.9880 N.3   191  ASP191     -0.1239
     72  CA        34.8140    2.7540   53.4320 C.3   191  ASP191      0.1674
     73  C         34.6960    2.5710   54.9400 C.2   191  ASP191      0.2266
     74  O         34.6500    1.4500   55.4360 O.2   191  ASP191     -0.2867
     75  CB        33.7580    1.9230   52.7100 C.3   191  ASP191      0.1410
     76  CG        32.3480    2.3570   53.0510 C.2   191  ASP191      0.3668
     77  OD1       32.2040    3.4130   53.7090 O.co2 191  ASP191     -0.2456
     78  OD2       31.3280    1.7120   52.7060 O.co2 191  ASP191     -0.2456
     79  N         32.2110    3.6520   56.8850 N.3   193  ASN193     -0.1240
     80  CA        30.8090    3.5830   57.3090 C.3   193  ASN193      0.1653
     81  C         30.4790    4.3270   58.6090 C.2   193  ASN193      0.2266
     82  O         29.9170    3.7620   59.5540 O.2   193  ASN193     -0.2867
     83  CB        30.3340    2.1380   57.3350 C.3   193  ASN193      0.1155
     84  CG        30.2310    1.5640   55.9520 C.2   193  ASN193      0.2627
     85  OD1       29.4390    2.0340   55.1290 O.2   193  ASN193     -0.2716
     86  ND2       31.0430    0.5580   55.6700 N.am  193  ASN193     -0.0877
     87  N         28.3910    8.9930   51.2680 N.3   244  ASP244     -0.1225
     88  CA        27.4950    7.8690   51.0060 C.3   244  ASP244      0.1805
     89  C         26.1920    8.0400   51.7890 C.2   244  ASP244      0.2597
     90  O         25.1830    8.4830   51.2390 O.2   244  ASP244     -0.2718
     91  CB        28.1910    6.5300   51.3240 C.3   244  ASP244      0.1424
     92  CG        27.3190    5.3260   51.0260 C.2   244  ASP244      0.3668
     93  OD1       26.1800    5.5000   50.5640 O.co2 244  ASP244     -0.2456
     94  OD2       27.6800    4.1590   51.2270 O.co2 244  ASP244     -0.2456
     95  N         26.2100    7.7050   53.0700 N.am  245  GLU245     -0.1979
     96  CA        25.0030    7.7510   53.8800 C.3   245  GLU245      0.1602
     97  C         24.5550    9.2070   54.1220 C.2   245  GLU245      0.2287
     98  O         23.4240    9.4620   54.5010 O.2   245  GLU245     -0.2864
     99  CB        25.2270    7.0360   55.2050 C.3   245  GLU245      0.0415
    100  CG        25.4190    5.5300   55.0830 C.3   245  GLU245      0.1163
    101  CD        26.8800    5.1380   55.0790 C.2   245  GLU245      0.3649
    102  OE1       27.6840    5.8970   54.5010 O.co2 245  GLU245     -0.2457
    103  OE2       27.2280    4.0960   55.6750 O.co2 245  GLU245     -0.2457
    104  N         28.6580    8.6020   46.3630 N.3   266  ASN266     -0.1240
    105  CA        28.1110    7.2600   46.1470 C.3   266  ASN266      0.1653
    106  C         26.5970    7.3670   46.0020 C.2   266  ASN266      0.2266
    107  O         25.9250    7.8870   46.9030 O.2   266  ASN266     -0.2867
    108  CB        28.4800    6.3500   47.3520 C.3   266  ASN266      0.1155
    109  CG        27.9550    4.9120   47.2200 C.2   266  ASN266      0.2627
    110  OD1       26.8100    4.6940   46.8360 O.2   266  ASN266     -0.2716
    111  ND2       28.7990    3.9320   47.5650 N.am  266  ASN266     -0.0877
    112  N         23.1140    5.1400   45.3710 N.3   268  LYS268     -0.1245
    113  CA        22.4480    3.8510   45.3030 C.3   268  LYS268      0.1561
    114  C         20.9770    4.0850   45.0050 C.2   268  LYS268      0.2260
    115  O         20.4020    5.1110   45.4090 O.2   268  LYS268     -0.2867
    116  CB        22.5610    3.1000   46.6240 C.3   268  LYS268      0.0271
    117  CG        23.9650    2.9310   47.1550 C.3   268  LYS268      0.0035
    118  CD        23.9280    2.3030   48.5430 C.3   268  LYS268      0.0206
    119  CE        25.3090    1.9960   49.0720 C.3   268  LYS268      0.1093
    120  NZ        26.1570    3.1910   49.1150 N.3   268  LYS268     -0.1314
    121  N         25.4330   -0.2880   45.6980 N.3   296  SER296     -0.1202
    122  CA        24.2280   -1.0200   46.0490 C.3   296  SER296      0.2020
    123  C         24.3060   -1.4770   47.5210 C.2   296  SER296      0.2619
    124  O         25.3310   -1.3120   48.1980 O.2   296  SER296     -0.2717
    125  CB        24.0440   -2.2370   45.1290 C.3   296  SER296      0.2103
    126  OG        24.7360   -3.3630   45.6510 O.3   296  SER296     -0.2182
    127  N         23.2010   -2.0200   48.0150 N.am  297  MET297     -0.1965
    128  CA        23.1820   -2.7470   49.2740 C.3   297  MET297      0.1736
    129  C         23.4890   -4.2290   48.9540 C.2   297  MET297      0.2616
    130  O         23.8270   -4.5580   47.8200 O.2   297  MET297     -0.2715
    131  CB        21.8140   -2.6150   49.9470 C.3   297  MET297      0.0427
    132  CG        21.3090   -1.1880   50.0790 C.3   297  MET297      0.0599
    133  SD        22.4110   -0.2060   51.1150 S.3   297  MET297     -0.1393
    134  CE        21.6780    1.4740   50.8480 C.3   297  MET297      0.0692
    135  N         23.3840   -5.1150   49.9390 N.am  298  ILE298     -0.1977
    136  CA        23.5050   -6.5360   49.6550 C.3   298  ILE298      0.1596
    137  C         22.2450   -6.9160   48.9080 C.2   298  ILE298      0.2287
    138  O         21.1710   -7.0180   49.4990 O.2   298  ILE298     -0.2864
    139  CB        23.6800   -7.3730   50.9170 C.3   298  ILE298      0.0276
    140  CG1       24.9530   -6.9610   51.6640 C.3   298  ILE298      0.0022
    141  CG2       23.7310   -8.8590   50.5480 C.3   298  ILE298      0.0022
    142  CD1       26.2220   -7.0940   50.8520 C.3   298  ILE298      0.0001
    143  N         30.5370   -0.2200   42.0210 N.3   321  ASP321     -0.1239
    144  CA        30.6430   -1.0330   43.2110 C.3   321  ASP321      0.1674
    145  C         29.5150   -2.0620   43.1890 C.2   321  ASP321      0.2266
    146  O         28.5230   -1.9570   43.9250 O.2   321  ASP321     -0.2867
    147  CB        30.5820   -0.1280   44.4500 C.3   321  ASP321      0.1410
    148  CG        30.6980   -0.9020   45.7600 C.2   321  ASP321      0.3668
    149  OD1       31.4850   -1.8520   45.8060 O.co2 321  ASP321     -0.2456
    150  OD2       30.0340   -0.6390   46.7860 O.co2 321  ASP321     -0.2456
    151  N         29.6850   -5.6080   43.6170 N.3   323  ASP323     -0.1225
    152  CA        30.1540   -6.9050   44.0990 C.3   323  ASP323      0.1805
    153  C         29.1130   -7.7540   44.8150 C.2   323  ASP323      0.2597
    154  O         29.2910   -8.9650   44.9190 O.2   323  ASP323     -0.2718
    155  CB        31.3730   -6.7710   45.0180 C.3   323  ASP323      0.1424
    156  CG        31.1950   -5.7270   46.1070 C.2   323  ASP323      0.3668
    157  OD1       30.0660   -5.2480   46.3410 O.co2 323  ASP323     -0.2456
    158  OD2       32.1540   -5.3170   46.7830 O.co2 323  ASP323     -0.2456
    159  N         28.0440   -7.1420   45.3050 N.am  324  ALA324     -0.1979
    160  CA        27.0520   -7.8500   46.1290 C.3   324  ALA324      0.1597
    161  C         26.6460   -9.2480   45.6120 C.2   324  ALA324      0.2287
    162  O         26.7670  -10.2000   46.3750 O.2   324  ALA324     -0.2864
    163  CB        25.8090   -6.9880   46.3610 C.3   324  ALA324      0.0319
    164  N         28.8440  -12.2060   46.0860 N.3   327  MET327     -0.1245
    165  CA        29.0160  -12.6460   47.4670 C.3   327  MET327      0.1570
    166  C         28.0060  -13.7190   47.8550 C.2   327  MET327      0.2261
    167  O         28.1290  -14.3240   48.9220 O.2   327  MET327     -0.2867
    168  CB        28.8440  -11.4720   48.4280 C.3   327  MET327      0.0387
    169  CG        29.8460  -10.3390   48.2860 C.3   327  MET327      0.0595
    170  SD        29.3500   -9.0380   49.4100 S.3   327  MET327     -0.1393
    171  CE        30.5210   -7.7500   49.0260 C.3   327  MET327      0.0692
@<TRIPOS>BOND
     1   143   144    1
     2   145   144    1
     3   145   146    2
     4   144   147    1
     5   151   152    1
     6   152   153    1
     7   152   155    1
     8   147   148    1
     9   153   154    2
    10   153   159   am
    11   114   113    1
    12   114   115    2
    13   155   156    1
    14   125   126    1
    15   125   122    1
    16   113   112    1
    17   113   116    1
    18   159   160    1
    19   161   160    1
    20   161   162    2
    21   121   122    1
    22   148   149   ar
    23   148   150   ar
    24   106   105    1
    25   106   107    2
    26   122   123    1
    27   164   165    1
    28   156   157   ar
    29   156   158   ar
    30   160   163    1
    31   105   104    1
    32   105   108    1
    33   116   117    1
    34   110   109    2
    35   117   118    1
    36   109   108    1
    37   109   111   am
    38   165   166    1
    39   165   168    1
    40   123   127   am
    41   123   124    2
    42    46    47    1
    43    53    54    1
    44   130   129    2
    45   166   167    2
    46   127   128    1
    47   169   168    1
    48   169   170    1
    49    57    54    1
    50    57    58    1
    51    59    58    1
    52    59    60    1
    53   118   119    1
    54    54    55    1
    55    51    50    1
    56   137   138    2
    57   137   136    1
    58    61    60    1
    59   129   128    1
    60   129   135   am
    61   171   170    1
    62   119   120    1
    63    47    50    1
    64    47    48    1
    65   128   131    1
    66    50    52    1
    67   136   135    1
    68   136   139    1
    69   131   132    1
    70    48    49    2
    71    55    56    2
    72   132   133    1
    73   141   139    1
    74    93    92   ar
    75   134   133    1
    76   142   140    1
    77   139   140    1
    78    88    87    1
    79    88    91    1
    80    88    89    1
    81    92    94   ar
    82    92    91    1
    83    90    89    2
    84    89    95   am
    85     9    11   ar
    86     9     7   ar
    87    11    10   ar
    88     7     6   ar
    89    78    76   ar
    90    75    76    1
    91    75    72    1
    92    70    69    1
    93    71    72    1
    94    76    77   ar
    95    95    96    1
    96    69    68    1
    97    72    73    1
    98    10     8   ar
    99     6     8   ar
   100     6     5    1
   101    96    97    1
   102    96    99    1
   103     5     2    1
   104    62    63    1
   105    97    98    2
   106    68    67    1
   107    67    66    1
   108   102   101   ar
   109    44    42    1
   110    73    74    2
   111     2     1    1
   112     2     3    1
   113    45    43    1
   114    36    35    1
   115   101   100    1
   116   101   103   ar
   117   100    99    1
   118    85    84    2
   119    63    66    1
   120    63    64    1
   121    42    43    1
   122    42    39    1
   123    86    84   am
   124    18    16    1
   125    84    83    1
   126     3     4    2
   127    35    37    1
   128    35    34    2
   129    64    65    2
   130    40    41    2
   131    40    39    1
   132    39    38    1
   133    79    80    1
   134    16    17    1
   135    16    13    1
   136    80    83    1
   137    80    81    1
   138    33    34    1
   139    33    32    1
   140    13    12    1
   141    13    14    1
   142    25    24    1
   143    32    31    1
   144    81    82    2
   145    24    23    1
   146    24    26    1
   147    14    15    2
   148    30    29    2
   149    31    28    1
   150    23    20    1
   151    29    28    1
   152    19    20    1
   153    27    28    1
   154    27    21   am
   155    20    21    1
   156    21    22    2
