@<TRIPOS>MOLECULE
tmp/1tkrA06.pdb
 143 142 0 0 0
SMALL
GASTEIGER

@<TRIPOS>ATOM
      1  N         81.8340   63.5770   98.4910 N.3    87  ARG87      -0.1245
      2  CA        80.8110   63.9650   99.4530 C.3    87  ARG87       0.1563
      3  C         79.6680   62.9630   99.5700 C.2    87  ARG87       0.2260
      4  O         79.2920   62.5750  100.6790 O.2    87  ARG87      -0.2867
      5  CB        80.2580   65.3460   99.0930 C.3    87  ARG87       0.0307
      6  CG        78.9410   65.7140   99.7770 C.3    87  ARG87       0.0489
      7  CD        79.1440   66.8390  100.7460 C.3    87  ARG87       0.2205
      8  NE        79.9730   67.8900  100.1680 N.pl3  87  ARG87      -0.0865
      9  CZ        80.4340   68.9210  100.8640 C.cat  87  ARG87       0.5346
     10  NH1       80.1350   69.0250  102.1500 N.pl3  87  ARG87       0.1354
     11  NH2       81.2030   69.8360  100.2890 N.pl3  87  ARG87       0.1354
     12  N         78.8960   67.4670   93.3110 N.3   167  GLU167     -0.1231
     13  CA        79.0570   68.5110   94.3120 C.3   167  GLU167      0.1699
     14  C         78.3010   69.8140   94.0850 C.2   167  GLU167      0.2592
     15  O         77.8010   70.4070   95.0360 O.2   167  GLU167     -0.2718
     16  CB        80.5510   68.8210   94.4440 C.3   167  GLU167      0.0402
     17  CG        80.9290   69.8550   95.4850 C.3   167  GLU167      0.1161
     18  CD        80.6290   69.4080   96.9030 C.2   167  GLU167      0.3649
     19  OE1       80.6790   68.1870   97.1960 O.co2 167  GLU167     -0.2457
     20  OE2       80.3550   70.2940   97.7340 O.co2 167  GLU167     -0.2457
     21  N         78.2020   70.2550   92.8340 N.am  168  GLU168     -0.1979
     22  CA        77.5710   71.5360   92.5450 C.3   168  GLU168      0.1602
     23  C         76.1640   71.5720   91.9430 C.2   168  GLU168      0.2287
     24  O         75.4520   72.5640   92.1100 O.2   168  GLU168     -0.2864
     25  CB        78.5190   72.3590   91.6640 C.3   168  GLU168      0.0415
     26  CG        79.9660   72.3210   92.1250 C.3   168  GLU168      0.1163
     27  CD        80.2280   73.1500   93.3810 C.2   168  GLU168      0.3649
     28  OE1       79.3090   73.3140   94.2130 O.co2 168  GLU168     -0.2457
     29  OE2       81.3690   73.6300   93.5450 O.co2 168  GLU168     -0.2457
     30  N         82.1670   83.0640  106.9880 N.3   509  TYR509     -0.1241
     31  CA        81.9700   82.2130  105.8200 C.3   509  TYR509      0.1605
     32  C         81.6350   83.2190  104.7190 C.2   509  TYR509      0.2264
     33  O         82.4020   83.4050  103.7820 O.2   509  TYR509     -0.2867
     34  CB        80.8110   81.2260  106.0160 C.3   509  TYR509      0.0534
     35  CG        80.6600   80.3100  104.8210 C.ar  509  TYR509     -0.0201
     36  CD1       81.6610   79.3940  104.4920 C.ar  509  TYR509     -0.0009
     37  CD2       79.5700   80.4300  103.9550 C.ar  509  TYR509     -0.0009
     38  CE1       81.5870   78.6330  103.3270 C.ar  509  TYR509      0.0417
     39  CE2       79.4880   79.6700  102.7840 C.ar  509  TYR509      0.0417
     40  CZ        80.5020   78.7810  102.4750 C.ar  509  TYR509      0.1957
     41  OH        80.4690   78.0870  101.2860 O.3   509  TYR509     -0.2866
     42  N         86.5570   78.7150  107.1240 N.3   591  TRP591     -0.1227
     43  CA        86.8900   77.4700  106.4710 C.3   591  TRP591      0.1737
     44  C         86.3230   77.5670  105.0600 C.2   591  TRP591      0.2596
     45  O         85.2140   78.0570  104.8610 O.2   591  TRP591     -0.2718
     46  CB        86.2490   76.3040  107.2440 C.3   591  TRP591      0.0564
     47  CG        86.7610   74.9430  106.8730 C.ar  591  TRP591      0.0003
     48  CD1       86.8200   74.3990  105.6170 C.ar  591  TRP591      0.0946
     49  CD2       87.2810   73.9490  107.7640 C.ar  591  TRP591      0.0152
     50  NE1       87.3500   73.1300  105.6740 N.ar  591  TRP591     -0.2442
     51  CE2       87.6400   72.8290  106.9800 C.ar  591  TRP591      0.0810
     52  CE3       87.4810   73.8970  109.1480 C.ar  591  TRP591      0.0012
     53  CZ2       88.1850   71.6700  107.5340 C.ar  591  TRP591      0.0191
     54  CZ3       88.0240   72.7470  109.7040 C.ar  591  TRP591      0.0001
     55  CH2       88.3720   71.6460  108.8940 C.ar  591  TRP591      0.0015
     56  N         87.0990   77.1200  104.0830 N.am  592  SER592     -0.1938
     57  CA        86.6800   77.1510  102.6820 C.3   592  SER592      0.2055
     58  C         86.4220   78.5750  102.1920 C.2   592  SER592      0.2643
     59  O         87.3530   79.3530  102.0390 O.2   592  SER592     -0.2714
     60  CB        85.4230   76.2980  102.4690 C.3   592  SER592      0.2130
     61  OG        85.4350   75.8490  101.0930 O.3   592  SER592     -0.2179
     62  N         85.1650   78.9170  101.9350 N.am  593  TYR593     -0.1973
     63  CA        84.8780   80.2590  101.4740 C.3   593  TYR593      0.1639
     64  C         85.2210   81.1840  102.6220 C.2   593  TYR593      0.2290
     65  O         85.6490   82.3230  102.4160 O.2   593  TYR593     -0.2864
     66  CB        83.4070   80.4030  101.0940 C.3   593  TYR593      0.0560
     67  CG        83.1420   81.6000  100.2110 C.ar  593  TYR593     -0.0198
     68  CD1       83.3160   82.8960  100.6940 C.ar  593  TYR593     -0.0009
     69  CD2       82.7250   81.4390   98.8860 C.ar  593  TYR593     -0.0009
     70  CE1       83.0800   84.0050   99.8850 C.ar  593  TYR593      0.0417
     71  CE2       82.4890   82.5420   98.0710 C.ar  593  TYR593      0.0417
     72  CZ        82.6690   83.8190   98.5810 C.ar  593  TYR593      0.1957
     73  OH        82.4420   84.9150   97.7930 O.3   593  TYR593     -0.2866
     74  N         90.0530   79.5060   99.4670 N.3   618  VAL618     -0.1245
     75  CA        90.0940   79.6900   98.0270 C.3   618  VAL618      0.1561
     76  C         91.0690   80.8610   97.8970 C.2   618  VAL618      0.2260
     77  O         90.9500   81.8420   98.6370 O.2   618  VAL618     -0.2867
     78  CB        88.7000   80.1040   97.4890 C.3   618  VAL618      0.0252
     79  CG1       88.7570   80.3590   95.9910 C.3   618  VAL618      0.0019
     80  CG2       87.6810   79.0170   97.7940 C.3   618  VAL618      0.0019
     81  N         89.8430   82.5260   92.1260 N.3   621  TRP621     -0.1241
     82  CA        88.7280   81.8280   91.5200 C.3   621  TRP621      0.1605
     83  C         88.9670   80.9310   90.3170 C.2   621  TRP621      0.2264
     84  O         88.1720   80.0300   90.0680 O.2   621  TRP621     -0.2867
     85  CB        87.6070   82.8250   91.2400 C.3   621  TRP621      0.0550
     86  CG        87.0270   83.3030   92.5250 C.ar  621  TRP621      0.0003
     87  CD1       87.1270   84.5590   93.0660 C.ar  621  TRP621      0.0946
     88  CD2       86.3470   82.5020   93.4970 C.ar  621  TRP621      0.0152
     89  NE1       86.5550   84.5800   94.3170 N.ar  621  TRP621     -0.2442
     90  CE2       86.0680   83.3310   94.6030 C.ar  621  TRP621      0.0810
     91  CE3       85.9500   81.1600   93.5430 C.ar  621  TRP621      0.0012
     92  CZ2       85.4080   82.8600   95.7440 C.ar  621  TRP621      0.0191
     93  CZ3       85.2880   80.6910   94.6880 C.ar  621  TRP621      0.0001
     94  CH2       85.0270   81.5400   95.7660 C.ar  621  TRP621      0.0015
     95  N         88.9270   77.2180   91.3530 N.3   624  TYR624     -0.1241
     96  CA        87.7400   76.4620   91.7450 C.3   624  TYR624      0.1605
     97  C         86.9320   75.9560   90.5510 C.2   624  TYR624      0.2264
     98  O         87.1540   76.3930   89.4210 O.2   624  TYR624     -0.2867
     99  CB        86.8360   77.2710   92.6890 C.3   624  TYR624      0.0534
    100  CG        85.9760   76.3640   93.5310 C.ar  624  TYR624     -0.0201
    101  CD1       86.5530   75.4380   94.3960 C.ar  624  TYR624     -0.0009
    102  CD2       84.5930   76.3780   93.4150 C.ar  624  TYR624     -0.0009
    103  CE1       85.7670   74.5410   95.1230 C.ar  624  TYR624      0.0417
    104  CE2       83.7930   75.4880   94.1390 C.ar  624  TYR624      0.0417
    105  CZ        84.3870   74.5770   94.9880 C.ar  624  TYR624      0.1957
    106  OH        83.6000   73.7180   95.7130 O.3   624  TYR624     -0.2866
    107  N         80.0900   76.1780   90.1420 N.3   628  TYR628     -0.1241
    108  CA        79.9700   77.0960   91.2620 C.3   628  TYR628      0.1605
    109  C         80.5050   78.5000   90.9680 C.2   628  TYR628      0.2264
    110  O         79.7640   79.4860   91.0290 O.2   628  TYR628     -0.2867
    111  CB        80.6700   76.5130   92.4950 C.3   628  TYR628      0.0534
    112  CG        80.6770   77.4510   93.6750 C.ar  628  TYR628     -0.0201
    113  CD1       81.6950   78.3990   93.8350 C.ar  628  TYR628     -0.0009
    114  CD2       79.6360   77.4370   94.6020 C.ar  628  TYR628     -0.0009
    115  CE1       81.6750   79.3080   94.8810 C.ar  628  TYR628      0.0417
    116  CE2       79.6030   78.3460   95.6590 C.ar  628  TYR628      0.0417
    117  CZ        80.6240   79.2750   95.7910 C.ar  628  TYR628      0.1957
    118  OH        80.5980   80.1560   96.8470 O.3   628  TYR628     -0.2866
    119  N         88.2060   69.0970   96.7270 N.3   672  ASN672     -0.1225
    120  CA        87.2740   70.1940   96.4980 C.3   672  ASN672      0.1785
    121  C         88.0550   71.4800   96.2520 C.2   672  ASN672      0.2597
    122  O         88.1390   71.9580   95.1150 O.2   672  ASN672     -0.2718
    123  CB        86.3720   70.3390   97.7250 C.3   672  ASN672      0.1169
    124  CG        85.0440   70.9930   97.4100 C.2   672  ASN672      0.2627
    125  OD1       84.9850   72.0750   96.8220 O.2   672  ASN672     -0.2716
    126  ND2       83.9630   70.3390   97.8160 N.am  672  ASN672     -0.0877
    127  N         88.6010   72.0450   97.3290 N.am  673  VAL673     -0.1980
    128  CA        89.4200   73.2540   97.2500 C.3   673  VAL673      0.1595
    129  C         90.8470   72.7100   97.3210 C.2   673  VAL673      0.2287
    130  O         91.3910   72.4450   98.4010 O.2   673  VAL673     -0.2864
    131  CB        89.1750   74.2110   98.4430 C.3   673  VAL673      0.0276
    132  CG1       90.0890   75.4110   98.3240 C.3   673  VAL673      0.0022
    133  CG2       87.7140   74.6660   98.4820 C.3   673  VAL673      0.0022
    134  N         88.8330   67.8530  102.1420 N.3   702  HIS702     -0.1241
    135  CA        88.3080   69.1520  102.5260 C.3   702  HIS702      0.1621
    136  C         87.7630   69.2180  103.9500 C.2   702  HIS702      0.2264
    137  O         87.8850   70.2420  104.6190 O.2   702  HIS702     -0.2867
    138  CB        87.2190   69.5910  101.5520 C.3   702  HIS702      0.0745
    139  CG        86.8030   71.0140  101.7330 C.ar  702  HIS702      0.0817
    140  ND1       87.6490   72.0720  101.4840 N.ar  702  HIS702     -0.2268
    141  CD2       85.6390   71.5520  102.1620 C.ar  702  HIS702      0.1154
    142  CE1       87.0230   73.2040  101.7520 C.ar  702  HIS702      0.1986
    143  NE2       85.8020   72.9150  102.1650 N.ar  702  HIS702     -0.2212
@<TRIPOS>BOND
     1    98    97    2
     2    84    83    2
     3   107   108    1
     4    83    82    1
     5    97    96    1
     6   109   110    2
     7   109   108    1
     8    85    82    1
     9    85    86    1
    10   108   111    1
    11    95    96    1
    12    82    81    1
    13    25    26    1
    14    25    22    1
    15    96    99    1
    16    23    24    2
    17    23    22    1
    18    26    27    1
    19   111   112    1
    20    86    87   ar
    21    86    88   ar
    22    22    21    1
    23    99   100    1
    24    21    14   am
    25    87    89   ar
    26    12    13    1
    27    27    29   ar
    28    27    28   ar
    29   102   100   ar
    30   102   104   ar
    31    88    91   ar
    32    88    90   ar
    33   100   101   ar
    34    91    93   ar
    35   112   113   ar
    36   112   114   ar
    37   113   115   ar
    38    14    13    1
    39    14    15    2
    40   104   105   ar
    41    13    16    1
    42    89    90   ar
    43   101   103   ar
    44    16    17    1
    45   114   116   ar
    46    90    92   ar
    47    93    94   ar
    48   115   117   ar
    49   105   103   ar
    50   105   106    1
    51   122   121    2
    52    17    18    1
    53   116   117   ar
    54    92    94   ar
    55   117   118    1
    56    79    78    1
    57   121   120    1
    58   121   127   am
    59   120   119    1
    60   120   123    1
    61   125   124    2
    62    18    19   ar
    63    18    20   ar
    64   128   129    1
    65   128   127    1
    66   128   131    1
    67   129   130    2
    68   124   123    1
    69   124   126   am
    70    78    80    1
    71    78    75    1
    72    73    72    1
    73    76    75    1
    74    76    77    2
    75    75    74    1
    76    71    72   ar
    77    71    69   ar
    78   132   131    1
    79   131   133    1
    80     1     2    1
    81    72    70   ar
    82    69    67   ar
    83     5     2    1
    84     5     6    1
    85     2     3    1
    86     3     4    2
    87     6     7    1
    88    70    68   ar
    89     8     7    1
    90     8     9    2
    91    67    68   ar
    92    67    66    1
    93    11     9    1
    94     9    10    1
    95    61    60    1
    96    66    63    1
    97    41    40    1
    98    63    62    1
    99    63    64    1
   100   140   139   ar
   101   140   142   ar
   102   138   139    1
   103   138   135    1
   104   139   141   ar
   105   142   143   ar
   106    62    58   am
   107    59    58    2
   108   134   135    1
   109   141   143   ar
   110    58    57    1
   111    65    64    2
   112    60    57    1
   113    40    39   ar
   114    40    38   ar
   115   135   136    1
   116    57    56    1
   117    39    37   ar
   118    38    36   ar
   119    33    32    2
   120   136   137    2
   121    37    35   ar
   122    56    44   am
   123    36    35   ar
   124    32    31    1
   125    35    34    1
   126    45    44    2
   127    44    43    1
   128    48    50   ar
   129    48    47   ar
   130    50    51   ar
   131    31    34    1
   132    31    30    1
   133    43    42    1
   134    43    46    1
   135    47    46    1
   136    47    49   ar
   137    51    53   ar
   138    51    49   ar
   139    53    55   ar
   140    49    52   ar
   141    55    54   ar
   142    52    54   ar
