@<TRIPOS>MOLECULE
tmp/1tkuB00.pdb
 112 106 0 0 0
SMALL
GASTEIGER

@<TRIPOS>ATOM
      1  N         10.2870    5.5480    9.5340 N.3    32  ASP32      -0.1239
      2  CA         9.0050    4.8580    9.5370 C.3    32  ASP32       0.1674
      3  C          8.1070    5.4280   10.6320 C.2    32  ASP32       0.2266
      4  O          8.5830    5.7820   11.7090 O.2    32  ASP32      -0.2867
      5  CB         9.2200    3.3730    9.8370 C.3    32  ASP32       0.1410
      6  CG         9.0010    2.4890    8.6360 C.2    32  ASP32       0.3668
      7  OD1        9.5190    2.8100    7.5500 O.co2  32  ASP32      -0.2456
      8  OD2        8.3140    1.4570    8.7920 O.co2  32  ASP32      -0.2456
      9  N          1.7210    1.2800    1.8910 N.3    55  TYR55      -0.1241
     10  CA         1.8070   -0.1750    2.0220 C.3    55  TYR55       0.1605
     11  C          1.8110   -0.4120    3.5330 C.2    55  TYR55       0.2264
     12  O          2.8310   -0.7860    4.1170 O.2    55  TYR55      -0.2867
     13  CB         3.1180   -0.6700    1.3870 C.3    55  TYR55       0.0534
     14  CG         3.0790   -2.0860    0.8460 C.ar   55  TYR55      -0.0201
     15  CD1        2.2280   -2.4290   -0.2050 C.ar   55  TYR55      -0.0009
     16  CD2        3.9150   -3.0750    1.3620 C.ar   55  TYR55      -0.0009
     17  CE1        2.2080   -3.7180   -0.7290 C.ar   55  TYR55       0.0417
     18  CE2        3.9060   -4.3750    0.8400 C.ar   55  TYR55       0.0417
     19  CZ         3.0510   -4.6880   -0.2030 C.ar   55  TYR55       0.1957
     20  OH         3.0300   -5.9660   -0.7210 O.3    55  TYR55      -0.2866
     21  N          1.5020   -1.9740    7.0550 N.3    57  CYS57      -0.1235
     22  CA         1.6990   -3.2880    7.6550 C.3    57  CYS57       0.1677
     23  C          1.3760   -3.2960    9.1400 C.2    57  CYS57       0.2270
     24  O          1.4670   -2.2730    9.8150 O.2    57  CYS57      -0.2867
     25  CB         3.1450   -3.7390    7.4630 C.3    57  CYS57       0.0956
     26  SG         3.6440   -3.8800    5.7470 S.3    57  CYS57      -0.0801
     27  N         13.3620  -11.3900    6.4390 N.3    76  GLY76      -0.1210
     28  CA        13.3260  -10.3320    5.4410 C.3    76  GLY76       0.1956
     29  C         11.9770   -9.6540    5.2610 C.2    76  GLY76       0.2612
     30  O         11.6360   -9.1990    4.1610 O.2    76  GLY76      -0.2717
     31  N         11.2270   -9.5470    6.3500 N.am   77  THR77      -0.1952
     32  CA         9.8930   -8.9460    6.3570 C.3    77  THR77       0.1897
     33  C          9.0020  -10.1510    6.1300 C.2    77  THR77       0.2313
     34  O          8.7650  -10.5660    4.9940 O.2    77  THR77      -0.2863
     35  CB         9.6510   -7.8920    5.2330 C.3    77  THR77       0.1794
     36  OG1       10.6370   -6.8550    5.3120 O.3    77  THR77      -0.2208
     37  CG2        8.2770   -7.2640    5.4000 C.3    77  THR77       0.0378
     38  N          5.8340  -11.3770    5.7390 N.3    79  TYR79      -0.1241
     39  CA         4.4440  -11.0790    5.4430 C.3    79  TYR79       0.1605
     40  C          3.5780  -12.3200    5.6130 C.2    79  TYR79       0.2264
     41  O          4.0050  -13.4340    5.3130 O.2    79  TYR79      -0.2867
     42  CB         4.2760  -10.6000    4.0010 C.3    79  TYR79       0.0534
     43  CG         5.0240   -9.3440    3.6410 C.ar   79  TYR79      -0.0201
     44  CD1        6.2650   -9.4060    3.0070 C.ar   79  TYR79      -0.0009
     45  CD2        4.4730   -8.0900    3.8940 C.ar   79  TYR79      -0.0009
     46  CE1        6.9360   -8.2480    2.6290 C.ar   79  TYR79       0.0417
     47  CE2        5.1360   -6.9240    3.5230 C.ar   79  TYR79       0.0417
     48  CZ         6.3660   -7.0100    2.8900 C.ar   79  TYR79       0.1957
     49  OH         7.0280   -5.8570    2.5410 O.3    79  TYR79      -0.2866
     50  N          2.4620   -8.7150    9.7180 N.3   124  LEU124     -0.1245
     51  CA         3.8490   -9.1650    9.6850 C.3   124  LEU124      0.1561
     52  C          4.1060   -9.9950   10.9320 C.2   124  LEU124      0.2260
     53  O          3.5420   -9.7190   11.9870 O.2   124  LEU124     -0.2867
     54  CB         4.8050   -7.9730    9.6670 C.3   124  LEU124      0.0270
     55  CG         4.5730   -6.9240    8.5790 C.3   124  LEU124      0.0019
     56  CD1        5.6350   -5.8410    8.7070 C.3   124  LEU124      0.0001
     57  CD2        4.6200   -7.5690    7.2050 C.3   124  LEU124      0.0001
     58  N         16.1110   -9.9810   16.1450 N.3   134  ARG134     -0.1245
     59  CA        16.0990   -9.3590   14.8180 C.3   134  ARG134      0.1563
     60  C         15.7940   -7.8800   14.9950 C.2   134  ARG134      0.2260
     61  O         14.7480   -7.5230   15.5300 O.2   134  ARG134     -0.2867
     62  CB        15.0320   -9.9970   13.9190 C.3   134  ARG134      0.0307
     63  CG        14.8840   -9.3270   12.5440 C.3   134  ARG134      0.0489
     64  CD        13.9620  -10.1300   11.6230 C.3   134  ARG134      0.2205
     65  NE        13.9450   -9.6190   10.2510 N.pl3 134  ARG134     -0.0865
     66  CZ        13.1990   -8.6010    9.8270 C.cat 134  ARG134      0.5346
     67  NH1       13.2660   -8.2140    8.5590 N.pl3 134  ARG134      0.1354
     68  NH2       12.3730   -7.9800   10.6570 N.pl3 134  ARG134      0.1354
     69  N         14.5630   -5.5570   13.2580 N.3   136  GLY136     -0.1210
     70  CA        13.7250   -5.0360   12.1960 C.3   136  GLY136      0.1956
     71  C         12.6600   -4.1020   12.7330 C.2   136  GLY136      0.2612
     72  O         12.4230   -4.0450   13.9430 O.2   136  GLY136     -0.2717
     73  N         12.0140   -3.3560   11.8430 N.am  137  HIS137     -0.1961
     74  CA        10.9710   -2.4480   12.2910 C.3   137  HIS137      0.1787
     75  C          9.7650   -3.2530   12.7550 C.2   137  HIS137      0.2620
     76  O          8.9520   -2.7660   13.5370 O.2   137  HIS137     -0.2715
     77  CB        10.5830   -1.4740   11.1760 C.3   137  HIS137      0.0785
     78  CG        11.6820   -0.5290   10.8000 C.ar  137  HIS137      0.0821
     79  ND1       11.4440    0.7100   10.2470 N.ar  137  HIS137     -0.2267
     80  CD2       13.0280   -0.6410   10.9060 C.ar  137  HIS137      0.1154
     81  CE1       12.5950    1.3220   10.0290 C.ar  137  HIS137      0.1986
     82  NE2       13.5710    0.5230   10.4200 N.ar  137  HIS137     -0.2212
     83  N          9.6580   -4.4910   12.2750 N.am  138  THR138     -0.1951
     84  CA         8.5610   -5.3700   12.6740 C.3   138  THR138      0.1897
     85  C          8.7200   -5.6510   14.1650 C.2   138  THR138      0.2313
     86  O          7.7900   -5.4550   14.9510 O.2   138  THR138     -0.2863
     87  CB         8.5970   -6.7150   11.9080 C.3   138  THR138      0.1794
     88  OG1        8.4130   -6.4800   10.5070 O.3   138  THR138     -0.2208
     89  CG2        7.4920   -7.6360   12.3960 C.3   138  THR138      0.0378
     90  N          2.7510    0.0870   11.0090 N.3   156  ILE156     -0.1231
     91  CA         3.8170    0.9180   10.4750 C.3   156  ILE156      0.1692
     92  C          3.7370    1.1800    8.9750 C.2   156  ILE156      0.2592
     93  O          3.0030    0.5120    8.2470 O.2   156  ILE156     -0.2718
     94  CB         5.1950    0.2630   10.7440 C.3   156  ILE156      0.0266
     95  CG1        5.4120   -0.9230    9.7940 C.3   156  ILE156      0.0019
     96  CG2        5.2730   -0.2450   12.1830 C.3   156  ILE156      0.0020
     97  CD1        4.3810   -2.0130    9.9010 C.3   156  ILE156      0.0001
     98  N          4.5060    2.1710    8.5320 N.am  157  CYS157     -0.1956
     99  CA         4.6080    2.5170    7.1180 C.3   157  CYS157      0.1843
    100  C          5.7410    3.5190    6.9280 C.2   157  CYS157      0.2625
    101  O          6.0390    4.3100    7.8260 O.2   157  CYS157     -0.2714
    102  CB         3.2970    3.0890    6.5750 C.3   157  CYS157      0.0997
    103  SG         3.1040    2.7510    4.7890 S.3   157  CYS157     -0.0797
    104  N          6.3650    3.4730    5.7540 N.am  158  GLU158     -0.1977
    105  CA         7.4970    4.3380    5.4160 C.3   158  GLU158      0.1602
    106  C          7.1280    5.7670    5.0250 C.2   158  GLU158      0.2287
    107  O          6.2860    5.9780    4.1530 O.2   158  GLU158     -0.2864
    108  CB         8.2940    3.7260    4.2550 C.3   158  GLU158      0.0415
    109  CG         8.7150    2.2740    4.4290 C.3   158  GLU158      0.1163
    110  CD         7.7070    1.2770    3.8720 C.2   158  GLU158      0.3649
    111  OE1        8.0870    0.1010    3.6990 O.co2 158  GLU158     -0.2457
    112  OE2        6.5430    1.6510    3.6100 O.co2 158  GLU158     -0.2457
@<TRIPOS>BOND
     1    17    15   ar
     2    17    19   ar
     3    20    19    1
     4    15    14   ar
     5    19    18   ar
     6    18    16   ar
     7    14    16   ar
     8    14    13    1
     9    13    10    1
    10     9    10    1
    11    10    11    1
    12    49    48    1
    13    46    48   ar
    14    46    44   ar
    15    48    47   ar
    16    44    43   ar
    17    47    45   ar
    18    11    12    2
    19   112   110   ar
    20    43    45   ar
    21    43    42    1
    22   111   110   ar
    23   110   109    1
    24    42    39    1
    25   107   106    2
    26    30    29    2
    27   108   109    1
    28   108   105    1
    29   103   102    1
    30    34    33    2
    31   106   105    1
    32    35    36    1
    33    35    37    1
    34    35    32    1
    35    29    28    1
    36    29    31   am
    37    41    40    2
    38   105   104    1
    39    28    27    1
    40    39    40    1
    41    39    38    1
    42    26    25    1
    43   104   100   am
    44    33    32    1
    45    31    32    1
    46   102    99    1
    47   100    99    1
    48   100   101    2
    49    21    22    1
    50    99    98    1
    51    57    55    1
    52    25    22    1
    53     7     6   ar
    54    22    23    1
    55    93    92    2
    56    98    92   am
    57    67    66    1
    58    55    56    1
    59    55    54    1
    60     6     8   ar
    61     6     5    1
    62    92    91    1
    63    23    24    2
    64     1     2    1
    65     2     5    1
    66     2     3    1
    67    54    51    1
    68    51    50    1
    69    51    52    1
    70    95    97    1
    71    95    94    1
    72    66    65    2
    73    66    68    1
    74    81    79   ar
    75    81    82   ar
    76    79    78   ar
    77    65    64    1
    78    82    80   ar
    79    91    94    1
    80    91    90    1
    81    88    87    1
    82     3     4    2
    83    94    96    1
    84    78    80   ar
    85    78    77    1
    86    52    53    2
    87    77    74    1
    88    64    63    1
    89    73    74    1
    90    73    71   am
    91    87    89    1
    92    87    84    1
    93    70    71    1
    94    70    69    1
    95    83    84    1
    96    83    75   am
    97    74    75    1
    98    63    62    1
    99    84    85    1
   100    71    72    2
   101    75    76    2
   102    62    59    1
   103    85    86    2
   104    59    60    1
   105    59    58    1
   106    60    61    2
