@<TRIPOS>MOLECULE
tmp/1tkxA00.pdb
 152 150 0 0 0
SMALL
GASTEIGER

@<TRIPOS>ATOM
      1  N          7.2270  -29.9950   26.2580 N.3    91  PRO91      -0.2116
      2  CA         6.5840  -29.9120   24.9480 C.3    91  PRO91       0.1372
      3  C          5.7890  -28.6260   24.8370 C.2    91  PRO91       0.2244
      4  O          5.4280  -28.0180   25.8490 O.2    91  PRO91      -0.2868
      5  CB         5.6740  -31.1360   24.9280 C.3    91  PRO91       0.0268
      6  CG         6.2910  -32.0650   25.9570 C.3    91  PRO91       0.0207
      7  CD         6.6760  -31.1100   27.0380 C.3    91  PRO91       0.0892
      8  N          2.3340  -27.2270   23.0050 N.3    93  PRO93      -0.2116
      9  CA         1.1100  -27.5990   22.2980 C.3    93  PRO93       0.1372
     10  C          1.1890  -27.7390   20.7780 C.2    93  PRO93       0.2244
     11  O          0.8080  -28.7660   20.2320 O.2    93  PRO93      -0.2868
     12  CB         0.1380  -26.5230   22.7480 C.3    93  PRO93       0.0268
     13  CG         0.4900  -26.4150   24.2040 C.3    93  PRO93       0.0207
     14  CD         2.0170  -26.4130   24.1940 C.3    93  PRO93       0.0892
     15  N          2.4540  -31.0650   19.3950 N.3    96  LEU96      -0.1231
     16  CA         1.7310  -32.3100   19.6220 C.3    96  LEU96       0.1693
     17  C          0.9510  -32.7370   18.3820 C.2    96  LEU96       0.2591
     18  O          0.5860  -31.9140   17.5290 O.2    96  LEU96      -0.2718
     19  CB         0.7380  -32.1440   20.7710 C.3    96  LEU96       0.0284
     20  CG         1.2360  -31.4040   22.0110 C.3    96  LEU96       0.0019
     21  CD1        0.0830  -31.2790   22.9850 C.3    96  LEU96       0.0001
     22  CD2        2.4180  -32.1390   22.6440 C.3    96  LEU96       0.0001
     23  N          0.6940  -34.0360   18.2940 N.am   97  LYS97      -0.1980
     24  CA        -0.0590  -34.5840   17.1800 C.3    97  LYS97       0.1596
     25  C         -1.4570  -34.7140   17.7230 C.2    97  LYS97       0.2287
     26  O         -1.6290  -34.8990   18.9220 O.2    97  LYS97      -0.2864
     27  CB         0.4510  -35.9740   16.7920 C.3    97  LYS97       0.0298
     28  CG         1.8200  -36.0310   16.1240 C.3    97  LYS97       0.0038
     29  CD         2.9630  -36.1000   17.1280 C.3    97  LYS97       0.0206
     30  CE         3.3190  -34.7290   17.6580 C.3    97  LYS97       0.1093
     31  NZ         4.5150  -34.7510   18.5350 N.3    97  LYS97      -0.1314
     32  N         -4.9320  -36.5550   18.6010 N.3    99  LYS99      -0.1245
     33  CA        -5.1790  -37.9470   18.9710 C.3    99  LYS99       0.1561
     34  C         -6.6560  -38.3130   19.0400 C.2    99  LYS99       0.2260
     35  O         -7.5180  -37.4400   19.1750 O.2    99  LYS99      -0.2867
     36  CB        -4.5210  -38.2610   20.3180 C.3    99  LYS99       0.0271
     37  CG        -3.0150  -38.1650   20.2880 C.3    99  LYS99       0.0035
     38  CD        -2.4720  -39.0850   19.2320 C.3    99  LYS99       0.0206
     39  CE        -1.1070  -38.6510   18.7660 C.3    99  LYS99       0.1093
     40  NZ        -0.6930  -39.4800   17.6010 N.3    99  LYS99      -0.1314
     41  N         -6.9580  -39.2310   24.6260 N.3   102  VAL102     -0.1245
     42  CA        -5.8320  -38.8190   25.4530 C.3   102  VAL102      0.1561
     43  C         -6.2250  -38.9550   26.9220 C.2   102  VAL102      0.2260
     44  O         -7.2680  -38.4590   27.3530 O.2   102  VAL102     -0.2867
     45  CB        -5.4370  -37.3640   25.1660 C.3   102  VAL102      0.0252
     46  CG1       -4.3400  -36.9310   26.1220 C.3   102  VAL102      0.0019
     47  CG2       -4.9820  -37.2280   23.7210 C.3   102  VAL102      0.0019
     48  N          1.2400  -43.5180   22.4330 N.3   175  VAL175     -0.1231
     49  CA         2.2710  -42.5520   22.7940 C.3   175  VAL175      0.1692
     50  C          2.0830  -41.9540   24.1860 C.2   175  VAL175      0.2592
     51  O          1.0290  -41.3990   24.5030 O.2   175  VAL175     -0.2718
     52  CB         2.3200  -41.4190   21.7550 C.3   175  VAL175      0.0266
     53  CG1        3.5940  -40.6190   21.9140 C.3   175  VAL175      0.0020
     54  CG2        2.2460  -42.0040   20.3530 C.3   175  VAL175      0.0020
     55  N          3.1230  -42.0600   25.0070 N.am  176  ILE176     -0.1966
     56  CA         3.0790  -41.5500   26.3740 C.3   176  ILE176      0.1727
     57  C          3.9890  -40.3560   26.6290 C.2   176  ILE176      0.2616
     58  O          5.0270  -40.1930   25.9810 O.2   176  ILE176     -0.2715
     59  CB         3.5100  -42.6340   27.3770 C.3   176  ILE176      0.0290
     60  CG1        2.6500  -43.8770   27.2000 C.3   176  ILE176      0.0022
     61  CG2        3.3880  -42.1140   28.8020 C.3   176  ILE176      0.0023
     62  CD1        3.1680  -45.0650   27.9820 C.3   176  ILE176      0.0001
     63  N          3.5930  -39.5200   27.5830 N.am  177  TYR177     -0.1974
     64  CA         4.4100  -38.3860   27.9830 C.3   177  TYR177      0.1639
     65  C          4.4710  -38.3350   29.5080 C.2   177  TYR177      0.2290
     66  O          3.4430  -38.2100   30.1890 O.2   177  TYR177     -0.2864
     67  CB         3.8610  -37.0660   27.4650 C.3   177  TYR177      0.0560
     68  CG         4.6690  -35.8900   27.9750 C.ar  177  TYR177     -0.0198
     69  CD1        4.0340  -34.7530   28.4660 C.ar  177  TYR177     -0.0009
     70  CD2        6.0710  -35.9290   28.0000 C.ar  177  TYR177     -0.0009
     71  CE1        4.7610  -33.6790   28.9750 C.ar  177  TYR177      0.0417
     72  CE2        6.8110  -34.8560   28.5120 C.ar  177  TYR177      0.0417
     73  CZ         6.1400  -33.7360   28.9990 C.ar  177  TYR177      0.1957
     74  OH         6.8220  -32.6690   29.5240 O.3   177  TYR177     -0.2866
     75  N          0.8060  -38.6260   30.3590 N.3   184  TYR184     -0.1241
     76  CA        -0.1410  -38.2700   29.3170 C.3   184  TYR184      0.1605
     77  C         -0.1100  -39.3610   28.2720 C.2   184  TYR184      0.2264
     78  O          0.9170  -39.5950   27.6380 O.2   184  TYR184     -0.2867
     79  CB         0.2320  -36.9270   28.6980 C.3   184  TYR184      0.0534
     80  CG         0.0950  -35.7720   29.6640 C.ar  184  TYR184     -0.0201
     81  CD1        0.9760  -35.6240   30.7360 C.ar  184  TYR184     -0.0009
     82  CD2       -0.9570  -34.8580   29.5420 C.ar  184  TYR184     -0.0009
     83  CE1        0.8090  -34.5980   31.6670 C.ar  184  TYR184      0.0417
     84  CE2       -1.1320  -33.8330   30.4640 C.ar  184  TYR184      0.0417
     85  CZ        -0.2500  -33.7100   31.5250 C.ar  184  TYR184      0.1957
     86  OH        -0.4400  -32.7180   32.4580 O.3   184  TYR184     -0.2866
     87  N         -1.8570  -40.8520   24.7940 N.3   186  GLY186     -0.1225
     88  CA        -2.7340  -40.6340   23.6550 C.3   186  GLY186      0.1811
     89  C         -2.6710  -41.7790   22.6640 C.2   186  GLY186      0.2280
     90  O         -1.8010  -42.6450   22.7760 O.2   186  GLY186     -0.2866
     91  N         -7.1820  -30.2210   28.9220 N.3   223  PHE223     -0.1241
     92  CA        -6.0850  -30.3090   29.8620 C.3   223  PHE223      0.1605
     93  C         -5.3500  -28.9920   29.9270 C.2   223  PHE223      0.2264
     94  O         -4.9940  -28.4250   28.8930 O.2   223  PHE223     -0.2867
     95  CB        -5.1410  -31.4300   29.4510 C.3   223  PHE223      0.0534
     96  CG        -5.7580  -32.7910   29.5530 C.ar  223  PHE223     -0.0203
     97  CD1       -6.2390  -33.2540   30.7730 C.ar  223  PHE223     -0.0042
     98  CD2       -5.8760  -33.6070   28.4320 C.ar  223  PHE223     -0.0042
     99  CE1       -6.8290  -34.5090   30.8790 C.ar  223  PHE223     -0.0003
    100  CE2       -6.4660  -34.8670   28.5290 C.ar  223  PHE223     -0.0003
    101  CZ        -6.9440  -35.3180   29.7570 C.ar  223  PHE223     -0.0000
    102  N         -2.3760  -26.6470   30.2150 N.3   225  TRP225     -0.1241
    103  CA        -0.9520  -26.7390   29.9860 C.3   225  TRP225      0.1605
    104  C         -0.3660  -25.4020   29.6290 C.2   225  TRP225      0.2264
    105  O         -0.5720  -24.8950   28.5250 O.2   225  TRP225     -0.2867
    106  CB        -0.6590  -27.7390   28.8770 C.3   225  TRP225      0.0550
    107  CG         0.8000  -28.0130   28.6810 C.ar  225  TRP225      0.0003
    108  CD1        1.5860  -27.5790   27.6540 C.ar  225  TRP225      0.0946
    109  CD2        1.6400  -28.8250   29.5150 C.ar  225  TRP225      0.0152
    110  NE1        2.8630  -28.0740   27.7910 N.ar  225  TRP225     -0.2442
    111  CE2        2.9240  -28.8410   28.9250 C.ar  225  TRP225      0.0810
    112  CE3        1.4300  -29.5440   30.7000 C.ar  225  TRP225      0.0012
    113  CZ2        3.9970  -29.5490   29.4790 C.ar  225  TRP225      0.0191
    114  CZ3        2.4990  -30.2520   31.2530 C.ar  225  TRP225      0.0001
    115  CH2        3.7670  -30.2480   30.6390 C.ar  225  TRP225      0.0015
    116  N         -5.9880  -27.9930   26.4260 N.3   230  LEU230     -0.1231
    117  CA        -5.7680  -28.9430   25.3610 C.3   230  LEU230      0.1693
    118  C         -6.8860  -29.9530   25.2130 C.2   230  LEU230      0.2592
    119  O         -7.3480  -30.5570   26.1840 O.2   230  LEU230     -0.2718
    120  CB        -4.4520  -29.6650   25.5920 C.3   230  LEU230      0.0284
    121  CG        -3.2440  -28.7330   25.6020 C.3   230  LEU230      0.0019
    122  CD1       -1.9660  -29.5300   25.8070 C.3   230  LEU230      0.0001
    123  CD2       -3.1940  -27.9750   24.2920 C.3   230  LEU230      0.0001
    124  N         -7.3220  -30.1130   23.9740 N.am  231  HIS231     -0.1962
    125  CA        -8.3670  -31.0570   23.6280 C.3   231  HIS231      0.1772
    126  C         -7.6600  -32.0190   22.6960 C.2   231  HIS231      0.2462
    127  O         -6.6220  -31.6860   22.1220 O.2   231  HIS231     -0.2730
    128  CB        -9.4930  -30.3640   22.8610 C.3   231  HIS231      0.0785
    129  CG       -10.1200  -29.2240   23.5980 C.ar  231  HIS231      0.0821
    130  ND1      -10.9740  -29.4050   24.6630 N.ar  231  HIS231     -0.2267
    131  CD2      -10.0200  -27.8850   23.4190 C.ar  231  HIS231      0.1154
    132  CE1      -11.3740  -28.2280   25.1080 C.ar  231  HIS231      0.1986
    133  NE2      -10.8100  -27.2890   24.3700 N.ar  231  HIS231     -0.2212
    134  N         -8.1970  -33.2300   22.5390 N.am  232  PRO232     -0.2727
    135  CA        -7.5330  -34.1750   21.6380 C.3   232  PRO232      0.1402
    136  C         -7.5910  -33.6920   20.1890 C.2   232  PRO232      0.2269
    137  O         -6.6560  -33.9010   19.4200 O.2   232  PRO232     -0.2865
    138  CB        -8.3190  -35.4650   21.8530 C.3   232  PRO232      0.0296
    139  CG        -8.7800  -35.3440   23.2830 C.3   232  PRO232      0.0237
    140  CD        -9.2200  -33.9020   23.3580 C.3   232  PRO232      0.0939
    141  N         -3.2900  -29.0670   15.8400 N.3   313  TYR313     -0.1241
    142  CA        -2.0820  -29.8000   16.1990 C.3   313  TYR313      0.1605
    143  C         -1.2300  -30.1230   14.9740 C.2   313  TYR313      0.2264
    144  O         -1.6590  -29.9380   13.8270 O.2   313  TYR313     -0.2867
    145  CB        -2.4470  -31.0840   16.9300 C.3   313  TYR313      0.0534
    146  CG        -2.9920  -30.8290   18.3080 C.ar  313  TYR313     -0.0201
    147  CD1       -2.2140  -30.2070   19.2810 C.ar  313  TYR313     -0.0009
    148  CD2       -4.2780  -31.2160   18.6490 C.ar  313  TYR313     -0.0009
    149  CE1       -2.7080  -29.9810   20.5690 C.ar  313  TYR313      0.0417
    150  CE2       -4.7790  -30.9940   19.9320 C.ar  313  TYR313      0.0417
    151  CZ        -3.9890  -30.3780   20.8830 C.ar  313  TYR313      0.1957
    152  OH        -4.4890  -30.1640   22.1420 O.3   313  TYR313     -0.2866
@<TRIPOS>BOND
     1   144   143    2
     2   143   142    1
     3   141   142    1
     4    28    27    1
     5    28    29    1
     6   142   145    1
     7    27    24    1
     8   145   146    1
     9    29    30    1
    10    24    25    1
    11    24    23    1
    12    18    17    2
    13    40    39    1
    14    30    31    1
    15    25    26    2
    16    23    17   am
    17   146   148   ar
    18   146   147   ar
    19    17    16    1
    20    32    33    1
    21   148   150   ar
    22    39    38    1
    23    33    34    1
    24    33    36    1
    25    34    35    2
    26    38    37    1
    27   147   149   ar
    28    15    16    1
    29   137   136    2
    30    16    19    1
    31   150   151   ar
    32   136   135    1
    33    11    10    2
    34    37    36    1
    35    54    52    1
    36   149   151   ar
    37    19    20    1
    38    10     9    1
    39   151   152    1
    40   135   138    1
    41   135   134    1
    42    52    53    1
    43    52    49    1
    44   138   139    1
    45    20    22    1
    46    20    21    1
    47   127   126    2
    48     9    12    1
    49     9     8    1
    50    48    49    1
    51   134   126   am
    52   134   140    1
    53    89    90    2
    54    89    88    1
    55   126   125    1
    56    12    13    1
    57    49    50    1
    58   128   129    1
    59   128   125    1
    60     8    14    1
    61   139   140    1
    62   131   129   ar
    63   131   133   ar
    64   129   130   ar
    65   125   124    1
    66    88    87    1
    67    47    45    1
    68   124   118   am
    69    50    51    2
    70    50    55   am
    71    14    13    1
    72   123   121    1
    73   133   132   ar
    74    41    42    1
    75   130   132   ar
    76     3     2    1
    77     3     4    2
    78     5     2    1
    79     5     6    1
    80     2     1    1
    81    55    56    1
    82    45    42    1
    83    45    46    1
    84   118   117    1
    85   118   119    2
    86   117   120    1
    87   117   116    1
    88    42    43    1
    89   120   121    1
    90   121   122    1
    91     6     7    1
    92    58    57    2
    93     1     7    1
    94    56    57    1
    95    56    59    1
    96    57    63   am
    97    43    44    2
    98    60    59    1
    99    60    62    1
   100    59    61    1
   101    67    68    1
   102    67    64    1
   103    63    64    1
   104    78    77    2
   105   108   110   ar
   106   108   107   ar
   107   110   111   ar
   108    68    70   ar
   109    68    69   ar
   110    64    65    1
   111    70    72   ar
   112    77    76    1
   113    98   100   ar
   114    98    96   ar
   115    69    71   ar
   116    72    73   ar
   117   105   104    2
   118   100   101   ar
   119   107   106    1
   120   107   109   ar
   121    79    76    1
   122    79    80    1
   123   106   103    1
   124    94    93    2
   125    91    92    1
   126   111   113   ar
   127   111   109   ar
   128    71    73   ar
   129    73    74    1
   130    76    75    1
   131    95    96    1
   132    95    92    1
   133   113   115   ar
   134    65    66    2
   135   109   112   ar
   136    82    80   ar
   137    82    84   ar
   138    96    97   ar
   139   104   103    1
   140    80    81   ar
   141   101    99   ar
   142    92    93    1
   143   103   102    1
   144    84    85   ar
   145   115   114   ar
   146   112   114   ar
   147    81    83   ar
   148    97    99   ar
   149    85    83   ar
   150    85    86    1
