@<TRIPOS>MOLECULE
tmp/1tkyA00.pdb
 159 154 0 0 0
SMALL
GASTEIGER

@<TRIPOS>ATOM
      1  N         10.0590    1.0320   48.0520 N.3    73  HIS73      -0.1241
      2  CA        11.0340    1.8960   47.4140 C.3    73  HIS73       0.1621
      3  C         12.1490    1.0580   46.7860 C.2    73  HIS73       0.2264
      4  O         12.6000    1.3390   45.6660 O.2    73  HIS73      -0.2867
      5  CB        11.6070    2.8810   48.4330 C.3    73  HIS73       0.0745
      6  CG        11.9440    4.2180   47.8510 C.ar   73  HIS73       0.0817
      7  ND1       12.3070    5.2940   48.6300 N.ar   73  HIS73      -0.2268
      8  CD2       11.9640    4.6570   46.5690 C.ar   73  HIS73       0.1154
      9  CE1       12.5320    6.3410   47.8560 C.ar   73  HIS73       0.1986
     10  NE2       12.3310    5.9820   46.6000 N.ar   73  HIS73      -0.2212
     11  N         11.4200   -0.3120   43.4620 N.3    76  ALA76      -0.1231
     12  CA        11.6030    0.6000   42.3410 C.3    76  ALA76       0.1694
     13  C         13.0410    0.4410   41.8470 C.2    76  ALA76       0.2592
     14  O         13.2790    0.4100   40.6370 O.2    76  ALA76      -0.2718
     15  CB        11.3300    2.0470   42.7620 C.3    76  ALA76       0.0304
     16  N         14.0040    0.3310   42.7650 N.am   77  HIS77      -0.1976
     17  CA        15.3940    0.1380   42.3500 C.3    77  HIS77       0.1656
     18  C         15.5230   -1.1860   41.6080 C.2    77  HIS77       0.2291
     19  O         16.2560   -1.2800   40.6260 O.2    77  HIS77      -0.2864
     20  CB        16.3470    0.1210   43.5500 C.3    77  HIS77       0.0771
     21  CG        16.6170    1.4710   44.1260 C.ar   77  HIS77       0.0820
     22  ND1       17.5900    1.6860   45.0780 N.ar   77  HIS77      -0.2267
     23  CD2       16.0360    2.6720   43.8970 C.ar   77  HIS77       0.1154
     24  CE1       17.5970    2.9650   45.4130 C.ar   77  HIS77       0.1986
     25  NE2       16.6630    3.5850   44.7130 N.ar   77  HIS77      -0.2212
     26  N         12.5400    9.3230   37.6570 N.3    94  ILE94      -0.1231
     27  CA        12.1910    9.2830   39.0750 C.3    94  ILE94       0.1692
     28  C         11.3300    8.0630   39.3770 C.2    94  ILE94       0.2593
     29  O         10.4430    7.7260   38.5910 O.2    94  ILE94      -0.2718
     30  CB        11.4550   10.5820   39.4720 C.3    94  ILE94       0.0266
     31  CG1       12.3950   11.7740   39.2780 C.3    94  ILE94       0.0019
     32  CG2       10.9990   10.5210   40.9190 C.3    94  ILE94       0.0020
     33  CD1       11.7190   13.1160   39.4500 C.3    94  ILE94       0.0001
     34  N         11.6100    7.3990   40.5010 N.am   95  GLY95      -0.1943
     35  CA        10.8680    6.2040   40.8880 C.3    95  GLY95       0.1998
     36  C         10.5060    6.2600   42.3630 C.2    95  GLY95       0.2480
     37  O         11.2010    5.7030   43.2160 O.2    95  GLY95      -0.2729
     38  N          9.3910    6.9110   42.6910 N.am   96  PRO96      -0.2726
     39  CA         8.9420    7.0470   44.0750 C.3    96  PRO96       0.1402
     40  C          7.9690    5.9950   44.5650 C.2    96  PRO96       0.2269
     41  O          7.4150    5.2190   43.7870 O.2    96  PRO96      -0.2865
     42  CB         8.2930    8.4170   44.0670 C.3    96  PRO96       0.0296
     43  CG         7.5820    8.4170   42.7280 C.3    96  PRO96       0.0237
     44  CD         8.5320    7.6850   41.7750 C.3    96  PRO96       0.0939
     45  N          8.0750    3.9060   38.3060 N.3   104  TYR104     -0.1241
     46  CA         9.3420    4.4340   37.8390 C.3   104  TYR104      0.1605
     47  C          9.0790    4.9880   36.4480 C.2   104  TYR104      0.2264
     48  O          8.4920    4.3040   35.6020 O.2   104  TYR104     -0.2867
     49  CB        10.4420    3.3560   37.7680 C.3   104  TYR104      0.0534
     50  CG        11.8210    3.8670   38.1700 C.ar  104  TYR104     -0.0201
     51  CD1       12.3250    5.0720   37.6720 C.ar  104  TYR104     -0.0009
     52  CD2       12.6040    3.1570   39.0840 C.ar  104  TYR104     -0.0009
     53  CE1       13.5670    5.5600   38.0770 C.ar  104  TYR104      0.0417
     54  CE2       13.8540    3.6420   39.4990 C.ar  104  TYR104      0.0417
     55  CZ        14.3250    4.8450   38.9940 C.ar  104  TYR104      0.1957
     56  OH        15.5320    5.3530   39.4250 O.3   104  TYR104     -0.2866
     57  N         27.6440    6.8680   50.7320 N.3   138  LYS138     -0.1245
     58  CA        27.2900    8.2770   50.8470 C.3   138  LYS138      0.1561
     59  C         28.3990    9.0100   50.0980 C.2   138  LYS138      0.2260
     60  O         29.5780    8.8170   50.3950 O.2   138  LYS138     -0.2867
     61  CB        27.2870    8.6960   52.3190 C.3   138  LYS138      0.0271
     62  CG        26.6050   10.0200   52.6080 C.3   138  LYS138      0.0035
     63  CD        25.1040    9.9270   52.3880 C.3   138  LYS138      0.0206
     64  CE        24.3760   11.1010   53.0340 C.3   138  LYS138      0.1093
     65  NZ        22.9140   11.0650   52.7560 N.3   138  LYS138     -0.1314
     66  N         19.1130   11.6650   35.8000 N.3   156  LYS156     -0.1245
     67  CA        19.7110   11.6810   37.1360 C.3   156  LYS156      0.1561
     68  C         20.6800   12.8650   37.2210 C.2   156  LYS156      0.2260
     69  O         20.7510   13.5490   38.2400 O.2   156  LYS156     -0.2867
     70  CB        20.4630   10.3730   37.4310 C.3   156  LYS156      0.0271
     71  CG        19.5850    9.1180   37.4670 C.3   156  LYS156      0.0035
     72  CD        18.5250    9.2020   38.5610 C.3   156  LYS156      0.0206
     73  CE        17.7950    7.8650   38.7150 C.3   156  LYS156      0.1093
     74  NZ        16.6510    7.9930   39.6690 N.3   156  LYS156     -0.1314
     75  N         18.6670   15.9730   37.7270 N.3   159  ILE159     -0.1245
     76  CA        18.1680   16.1100   39.0890 C.3   159  ILE159      0.1561
     77  C         19.2910   16.7070   39.9380 C.2   159  ILE159      0.2260
     78  O         19.0520   17.5810   40.7710 O.2   159  ILE159     -0.2867
     79  CB        17.7050   14.7390   39.6400 C.3   159  ILE159      0.0252
     80  CG1       16.4530   14.3030   38.8870 C.3   159  ILE159      0.0019
     81  CG2       17.4330   14.8270   41.1490 C.3   159  ILE159      0.0019
     82  CD1       16.0290   12.8710   39.1650 C.3   159  ILE159      0.0001
     83  N         18.1120   20.1450   41.0490 N.3   163  ASN163     -0.1225
     84  CA        17.3570   19.9140   42.2800 C.3   163  ASN163      0.1785
     85  C         18.0770   19.5190   43.5570 C.2   163  ASN163      0.2597
     86  O         17.4390   19.3960   44.6060 O.2   163  ASN163     -0.2718
     87  CB        16.2730   18.8780   41.9850 C.3   163  ASN163      0.1169
     88  CG        15.5110   19.1900   40.7220 C.2   163  ASN163      0.2627
     89  OD1       15.4550   18.3760   39.8030 O.2   163  ASN163     -0.2716
     90  ND2       14.9240   20.3800   40.6610 N.am  163  ASN163     -0.0877
     91  N         19.3840   19.3100   43.4970 N.am  164  ILE164     -0.1980
     92  CA        20.1290   18.9290   44.6900 C.3   164  ILE164      0.1595
     93  C         21.2470   19.9230   44.9630 C.2   164  ILE164      0.2287
     94  O         22.0560   20.2140   44.0880 O.2   164  ILE164     -0.2864
     95  CB        20.7250   17.5110   44.5430 C.3   164  ILE164      0.0276
     96  CG1       19.5940   16.5000   44.3240 C.3   164  ILE164      0.0022
     97  CG2       21.5370   17.1550   45.7860 C.3   164  ILE164      0.0022
     98  CD1       20.0680   15.0710   44.0990 C.3   164  ILE164      0.0001
     99  N         25.0260   18.9500   49.4430 N.3   168  ASP168     -0.1225
    100  CA        24.2950   17.7670   49.8860 C.3   168  ASP168      0.1805
    101  C         25.1600   16.5390   49.6100 C.2   168  ASP168      0.2598
    102  O         26.0200   16.5650   48.7330 O.2   168  ASP168     -0.2718
    103  CB        22.9860   17.6470   49.1080 C.3   168  ASP168      0.1424
    104  CG        21.9450   16.8360   49.8430 C.2   168  ASP168      0.3668
    105  OD1       22.3210   15.8430   50.5040 O.co2 168  ASP168     -0.2456
    106  OD2       20.7490   17.1890   49.7530 O.co2 168  ASP168     -0.2456
    107  N         24.9390   15.4670   50.3660 N.am  169  LYS169     -0.1966
    108  CA        25.6950   14.2310   50.1800 C.3   169  LYS169      0.1713
    109  C         24.7000   13.1540   49.7580 C.2   169  LYS169      0.2458
    110  O         24.0660   12.5150   50.5980 O.2   169  LYS169     -0.2730
    111  CB        26.3840   13.8240   51.4880 C.3   169  LYS169      0.0311
    112  CG        27.3170   14.8930   52.0520 C.3   169  LYS169      0.0038
    113  CD        28.4230   15.2280   51.0590 C.3   169  LYS169      0.0206
    114  CE        29.3080   16.3670   51.5500 C.3   169  LYS169      0.1093
    115  NZ        30.3080   16.7750   50.5140 N.3   169  LYS169     -0.1314
    116  N         24.5390   12.9460   48.4430 N.am  170  PRO170     -0.2716
    117  CA        23.5900   11.9290   47.9920 C.3   170  PRO170      0.1536
    118  C         23.9840   10.5120   48.3720 C.2   170  PRO170      0.2599
    119  O         25.1660   10.1840   48.4780 O.2   170  PRO170     -0.2715
    120  CB        23.5840   12.1040   46.4720 C.3   170  PRO170      0.0310
    121  CG        23.9990   13.5220   46.2720 C.3   170  PRO170      0.0237
    122  CD        25.0890   13.6880   47.2960 C.3   170  PRO170      0.0939
    123  N         22.9740    9.6750   48.5750 N.am  171  GLY171     -0.1955
    124  CA        23.2440    8.2900   48.8730 C.3   171  GLY171      0.1869
    125  C         23.1450    7.4980   47.5770 C.2   171  GLY171      0.2309
    126  O         22.1730    7.6300   46.8220 O.2   171  GLY171     -0.2863
    127  N         21.5340    3.4530   41.8370 N.3   180  ASP180     -0.1225
    128  CA        20.4840    4.4590   41.8920 C.3   180  ASP180      0.1805
    129  C         20.8780    5.4570   42.9880 C.2   180  ASP180      0.2598
    130  O         21.8750    5.2640   43.6900 O.2   180  ASP180     -0.2718
    131  CB        19.1130    3.8120   42.1640 C.3   180  ASP180      0.1424
    132  CG        17.9660    4.5520   41.4740 C.2   180  ASP180      0.3668
    133  OD1       17.9570    5.8010   41.5070 O.co2 180  ASP180     -0.2456
    134  OD2       17.0650    3.8830   40.9110 O.co2 180  ASP180     -0.2456
    135  N         20.1030    6.5240   43.1150 N.am  181  MET181     -0.1965
    136  CA        20.3980    7.5840   44.0720 C.3   181  MET181      0.1736
    137  C         19.1610    7.8930   44.8890 C.2   181  MET181      0.2617
    138  O         18.0640    8.0240   44.3470 O.2   181  MET181     -0.2715
    139  CB        20.8610    8.8190   43.3010 C.3   181  MET181      0.0427
    140  CG        21.0740   10.0700   44.1350 C.3   181  MET181      0.0599
    141  SD        21.7660   11.4130   43.1200 S.3   181  MET181     -0.1393
    142  CE        20.3710   11.8090   42.0680 C.3   181  MET181      0.0692
    143  N         19.3300    8.0370   46.1990 N.am  182  CYS182     -0.1954
    144  CA        18.1680    8.2660   47.0310 C.3   182  CYS182      0.1843
    145  C         18.5360    8.7340   48.4280 C.2   182  CYS182      0.2625
    146  O         19.6890    8.6490   48.8400 O.2   182  CYS182     -0.2714
    147  CB        17.3980    6.9450   47.1400 C.3   182  CYS182      0.0997
    148  SG        15.7140    7.0530   47.7610 S.3   182  CYS182     -0.0797
    149  N         17.5370    9.2440   49.1380 N.am  183  ARG183     -0.1977
    150  CA        17.7280    9.6500   50.5240 C.3   183  ARG183      0.1597
    151  C         17.5520    8.3600   51.3280 C.2   183  ARG183      0.2287
    152  O         18.0860    8.2200   52.4290 O.2   183  ARG183     -0.2864
    153  CB        16.6680   10.6720   50.9470 C.3   183  ARG183      0.0334
    154  CG        16.6410   10.9550   52.4530 C.3   183  ARG183      0.0492
    155  CD        15.3300   10.4860   53.0720 C.3   183  ARG183      0.2205
    156  NE        15.2690   10.7130   54.5160 N.pl3 183  ARG183     -0.0865
    157  CZ        15.8900    9.9660   55.4250 C.cat 183  ARG183      0.5346
    158  NH1       16.6310    8.9290   55.0490 N.pl3 183  ARG183      0.1354
    159  NH2       15.7650   10.2490   56.7170 N.pl3 183  ARG183      0.1354
@<TRIPOS>BOND
     1    48    47    2
     2    66    67    1
     3    47    46    1
     4    67    68    1
     5    67    70    1
     6    68    69    2
     7    70    71    1
     8    71    72    1
     9    26    27    1
    10    51    53   ar
    11    51    50   ar
    12    75    76    1
    13    49    46    1
    14    49    50    1
    15    46    45    1
    16    53    55   ar
    17    50    52   ar
    18    72    73    1
    19    29    28    2
    20    73    74    1
    21    80    82    1
    22    80    79    1
    23    55    56    1
    24    55    54   ar
    25    27    28    1
    26    27    30    1
    27    52    54   ar
    28    76    79    1
    29    76    77    1
    30    31    33    1
    31    31    30    1
    32    28    34   am
    33    30    32    1
    34    79    81    1
    35    89    88    2
    36    77    78    2
    37    34    35    1
    38    19    18    2
    39    14    13    2
    40    90    88   am
    41    88    87    1
    42    35    36    1
    43   134   132   ar
    44    83    84    1
    45   132   133   ar
    46   132   131    1
    47    18    17    1
    48    44    38    1
    49    44    43    1
    50   127   128    1
    51    13    12    1
    52    13    16   am
    53   128   131    1
    54   128   129    1
    55    87    84    1
    56   142   141    1
    57    84    85    1
    58    12    15    1
    59    12    11    1
    60    17    16    1
    61    17    20    1
    62    36    38   am
    63    36    37    2
    64    38    39    1
    65    43    42    1
    66   129   135   am
    67   129   130    2
    68   135   136    1
    69   141   140    1
    70   139   136    1
    71   139   140    1
    72    91    85   am
    73    91    92    1
    74    20    21    1
    75    85    86    2
    76    41    40    2
    77    23    21   ar
    78    23    25   ar
    79    42    39    1
    80   136   137    1
    81    39    40    1
    82    94    93    2
    83    98    96    1
    84    21    22   ar
    85    96    95    1
    86   138   137    2
    87    95    92    1
    88    95    97    1
    89    92    93    1
    90    25    24   ar
    91   137   143   am
    92    22    24   ar
    93     4     3    2
    94   143   144    1
    95   121   120    1
    96   121   122    1
    97   120   117    1
    98     8    10   ar
    99     8     6   ar
   100    10     9   ar
   101     3     2    1
   102   126   125    2
   103   144   147    1
   104   144   145    1
   105   147   148    1
   106   122   116    1
   107     2     1    1
   108     2     5    1
   109   125   124    1
   110     6     5    1
   111     6     7   ar
   112     9     7   ar
   113   117   118    1
   114   117   116    1
   115   118   119    2
   116   118   123   am
   117   145   146    2
   118   145   149   am
   119   116   109   am
   120   123   124    1
   121   102   101    2
   122   103   104    1
   123   103   100    1
   124   149   150    1
   125    99   100    1
   126   101   100    1
   127   101   107   am
   128   106   104   ar
   129   109   108    1
   130   109   110    2
   131   104   105   ar
   132    59    60    2
   133    59    58    1
   134   108   107    1
   135   108   111    1
   136   115   114    1
   137   150   153    1
   138   150   151    1
   139    57    58    1
   140    58    61    1
   141   153   154    1
   142   113   114    1
   143   113   112    1
   144   151   152    2
   145   111   112    1
   146    61    62    1
   147    63    62    1
   148    63    64    1
   149   154   155    1
   150    65    64    1
   151   155   156    1
   152   156   157    2
   153   158   157    1
   154   157   159    1
