@<TRIPOS>MOLECULE
tmp/1tkzA00.pdb
 171 170 0 0 0
SMALL
GASTEIGER

@<TRIPOS>ATOM
      1  N          9.2080  -31.6160   23.1880 N.3    86  PRO86      -0.2116
      2  CA         8.7560  -31.4900   21.8050 C.3    86  PRO86       0.1372
      3  C          7.7030  -30.3960   21.7840 C.2    86  PRO86       0.2244
      4  O          7.0570  -30.1410   22.7910 O.2    86  PRO86      -0.2868
      5  CB         8.1860  -32.8750   21.4990 C.3    86  PRO86       0.0268
      6  CG         7.6990  -33.3280   22.8240 C.3    86  PRO86       0.0207
      7  CD         8.8070  -32.9150   23.7530 C.3    86  PRO86       0.0892
      8  N          4.6880  -32.7000   16.2530 N.3    91  LEU91      -0.1231
      9  CA         3.9690  -33.9810   16.2310 C.3    91  LEU91       0.1693
     10  C          3.1590  -34.2420   14.9560 C.2    91  LEU91       0.2591
     11  O          2.9830  -33.3520   14.1160 O.2    91  LEU91      -0.2718
     12  CB         3.0080  -34.0590   17.4230 C.3    91  LEU91       0.0284
     13  CG         3.4960  -33.5160   18.7750 C.3    91  LEU91       0.0019
     14  CD1        2.3580  -33.5030   19.7760 C.3    91  LEU91       0.0001
     15  CD2        4.6270  -34.3640   19.2950 C.3    91  LEU91       0.0001
     16  N          2.6650  -35.4750   14.8310 N.am   92  LYS92      -0.1980
     17  CA         1.8510  -35.8680   13.6850 C.3    92  LYS92       0.1596
     18  C          0.4990  -36.3250   14.2120 C.2    92  LYS92       0.2287
     19  O          0.3760  -36.7490   15.3660 O.2    92  LYS92      -0.2864
     20  CB         2.5050  -37.0080   12.9100 C.3    92  LYS92       0.0298
     21  CG         3.9160  -36.7190   12.4850 C.3    92  LYS92       0.0038
     22  CD         4.8150  -36.6920   13.6970 C.3    92  LYS92       0.0206
     23  CE         6.1500  -36.0440   13.3920 C.3    92  LYS92       0.1093
     24  NZ         6.9490  -35.8560   14.6400 N.3    92  LYS92      -0.1314
     25  N         -2.7260  -38.5270   15.0510 N.3    94  LYS94      -0.1245
     26  CA        -2.8300  -39.9150   15.4750 C.3    94  LYS94       0.1561
     27  C         -4.3000  -40.2120   15.7450 C.2    94  LYS94       0.2260
     28  O         -5.0450  -39.3230   16.1910 O.2    94  LYS94      -0.2867
     29  CB        -1.9850  -40.1390   16.7260 C.3    94  LYS94       0.0271
     30  CG        -0.5050  -40.0400   16.4350 C.3    94  LYS94       0.0035
     31  CD        -0.0420  -41.2860   15.6810 C.3    94  LYS94       0.0206
     32  CE         1.2070  -41.0380   14.8140 C.3    94  LYS94       0.1093
     33  NZ         0.8810  -40.8010   13.3550 N.3    94  LYS94      -0.1314
     34  N         -4.5180  -42.1290   21.2510 N.3    97  VAL97      -0.1245
     35  CA        -3.3730  -41.8580   22.0880 C.3    97  VAL97       0.1561
     36  C         -3.7670  -42.1010   23.5390 C.2    97  VAL97       0.2260
     37  O         -4.6880  -41.4650   24.0670 O.2    97  VAL97      -0.2867
     38  CB        -2.9170  -40.4020   21.9160 C.3    97  VAL97       0.0252
     39  CG1       -1.7820  -40.0970   22.8700 C.3    97  VAL97       0.0019
     40  CG2       -2.4970  -40.1580   20.4730 C.3    97  VAL97       0.0019
     41  N          3.8380  -45.5600   18.1770 N.3   170  VAL170     -0.1231
     42  CA         4.8660  -44.6350   18.6280 C.3   170  VAL170      0.1692
     43  C          4.7060  -44.4050   20.1140 C.2   170  VAL170      0.2592
     44  O          3.5890  -44.4770   20.6500 O.2   170  VAL170     -0.2718
     45  CB         4.7730  -43.2950   17.9070 C.3   170  VAL170      0.0266
     46  CG1        5.1060  -43.4760   16.4590 C.3   170  VAL170      0.0020
     47  CG2        3.3830  -42.7460   18.0360 C.3   170  VAL170      0.0020
     48  N          5.8290  -44.1400   20.7760 N.am  171  ILE171     -0.1966
     49  CA         5.8110  -43.9080   22.2110 C.3   171  ILE171      0.1727
     50  C          6.7020  -42.7790   22.6530 C.2   171  ILE171      0.2616
     51  O          7.8280  -42.6190   22.1540 O.2   171  ILE171     -0.2715
     52  CB         6.2660  -45.1350   22.9990 C.3   171  ILE171      0.0290
     53  CG1        5.4230  -46.3350   22.5880 C.3   171  ILE171      0.0022
     54  CG2        6.1250  -44.8700   24.5090 C.3   171  ILE171      0.0023
     55  CD1        5.8720  -47.6130   23.2110 C.3   171  ILE171      0.0001
     56  N          6.1920  -42.0210   23.6200 N.am  172  TYR172     -0.1974
     57  CA         6.9240  -40.9060   24.1870 C.3   172  TYR172      0.1639
     58  C          7.0050  -41.0590   25.6920 C.2   172  TYR172      0.2290
     59  O          5.9980  -41.3210   26.3680 O.2   172  TYR172     -0.2864
     60  CB         6.2530  -39.5770   23.8350 C.3   172  TYR172      0.0560
     61  CG         6.9400  -38.3590   24.4380 C.ar  172  TYR172     -0.0198
     62  CD1        6.5860  -37.8810   25.7050 C.ar  172  TYR172     -0.0009
     63  CD2        7.9620  -37.7040   23.7510 C.ar  172  TYR172     -0.0009
     64  CE1        7.2290  -36.7870   26.2650 C.ar  172  TYR172      0.0417
     65  CE2        8.6160  -36.6140   24.3050 C.ar  172  TYR172      0.0417
     66  CZ         8.2460  -36.1620   25.5610 C.ar  172  TYR172      0.1957
     67  OH         8.9190  -35.0860   26.0980 O.3   172  TYR172     -0.2866
     68  N          8.0830  -39.3750   29.3490 N.3   174  TYR174     -0.1241
     69  CA         8.1360  -38.0860   30.0370 C.3   174  TYR174      0.1605
     70  C          7.8810  -38.3550   31.5130 C.2   174  TYR174      0.2264
     71  O          6.7390  -38.5680   31.9220 O.2   174  TYR174     -0.2867
     72  CB         7.0710  -37.1450   29.4870 C.3   174  TYR174      0.0534
     73  CG         7.1430  -35.7610   30.0680 C.ar  174  TYR174     -0.0201
     74  CD1        6.6720  -35.5020   31.3490 C.ar  174  TYR174     -0.0009
     75  CD2        7.7020  -34.7090   29.3440 C.ar  174  TYR174     -0.0009
     76  CE1        6.7540  -34.2260   31.9040 C.ar  174  TYR174      0.0417
     77  CE2        7.7920  -33.4290   29.8870 C.ar  174  TYR174      0.0417
     78  CZ         7.3130  -33.1960   31.1680 C.ar  174  TYR174      0.1957
     79  OH         7.3810  -31.9360   31.7110 O.3   174  TYR174     -0.2866
     80  N          3.1590  -42.2200   26.7170 N.3   179  TYR179     -0.1227
     81  CA         2.1390  -41.9570   25.7320 C.3   179  TYR179      0.1736
     82  C          2.2510  -42.8630   24.5460 C.2   179  TYR179      0.2595
     83  O          3.3170  -42.9850   23.9410 O.2   179  TYR179     -0.2718
     84  CB         2.2270  -40.5330   25.2360 C.3   179  TYR179      0.0548
     85  CG         2.0330  -39.5080   26.3130 C.ar  179  TYR179     -0.0200
     86  CD1        2.9580  -39.3650   27.3480 C.ar  179  TYR179     -0.0009
     87  CD2        0.9550  -38.6320   26.2640 C.ar  179  TYR179     -0.0009
     88  CE1        2.8100  -38.3540   28.3000 C.ar  179  TYR179      0.0417
     89  CE2        0.7990  -37.6220   27.2030 C.ar  179  TYR179      0.0417
     90  CZ         1.7230  -37.4780   28.2130 C.ar  179  TYR179      0.1957
     91  OH         1.5760  -36.4330   29.1090 O.3   179  TYR179     -0.2866
     92  N          1.1390  -43.4860   24.1940 N.am  180  VAL180     -0.1966
     93  CA         1.1480  -44.3610   23.0500 C.3   180  VAL180      0.1727
     94  C          0.1750  -43.8830   21.9880 C.2   180  VAL180      0.2616
     95  O         -1.0370  -43.7990   22.2060 O.2   180  VAL180     -0.2715
     96  CB         0.7980  -45.7540   23.4550 C.3   180  VAL180      0.0290
     97  CG1        1.3060  -46.7090   22.4050 C.3   180  VAL180      0.0023
     98  CG2        1.3860  -46.0430   24.8310 C.3   180  VAL180      0.0023
     99  N          0.7260  -43.5530   20.8310 N.am  181  GLY181     -0.1955
    100  CA        -0.0980  -43.0740   19.7500 C.3   181  GLY181      0.1869
    101  C         -0.1700  -44.1230   18.6770 C.2   181  GLY181      0.2309
    102  O          0.7620  -44.8940   18.4450 O.2   181  GLY181     -0.2863
    103  N         -7.0570  -38.3340   25.5580 N.3   216  PRO216     -0.2116
    104  CA        -7.0940  -36.9270   25.1330 C.3   216  PRO216      0.1372
    105  C         -8.3220  -36.1640   25.6530 C.2   216  PRO216      0.2244
    106  O         -9.2760  -36.7630   26.1390 O.2   216  PRO216     -0.2868
    107  CB        -7.0990  -37.0310   23.6100 C.3   216  PRO216      0.0268
    108  CG        -6.2730  -38.2550   23.3690 C.3   216  PRO216      0.0207
    109  CD        -6.7720  -39.2240   24.4180 C.3   216  PRO216      0.0892
    110  N         -5.0070  -33.4080   26.0250 N.3   218  PHE218     -0.1241
    111  CA        -4.0520  -33.3400   27.1080 C.3   218  PHE218      0.1605
    112  C         -3.6380  -31.9130   27.4540 C.2   218  PHE218      0.2264
    113  O         -3.3250  -31.1190   26.5620 O.2   218  PHE218     -0.2867
    114  CB        -2.8280  -34.1740   26.7350 C.3   218  PHE218      0.0534
    115  CG        -3.1040  -35.6670   26.5880 C.ar  218  PHE218     -0.0203
    116  CD1       -3.4620  -36.4450   27.6960 C.ar  218  PHE218     -0.0042
    117  CD2       -2.9210  -36.3090   25.3560 C.ar  218  PHE218     -0.0042
    118  CE1       -3.6240  -37.8470   27.5840 C.ar  218  PHE218     -0.0003
    119  CE2       -3.0790  -37.7090   25.2290 C.ar  218  PHE218     -0.0003
    120  CZ        -3.4290  -38.4750   26.3460 C.ar  218  PHE218     -0.0000
    121  N         -0.9130  -30.2500   28.7550 N.3   220  TRP220     -0.1241
    122  CA         0.4970  -30.4380   29.0010 C.3   220  TRP220      0.1605
    123  C          1.3280  -29.1770   28.8890 C.2   220  TRP220      0.2264
    124  O          1.4870  -28.6140   27.7980 O.2   220  TRP220     -0.2867
    125  CB         0.9960  -31.4780   28.0190 C.3   220  TRP220      0.0550
    126  CG         2.4340  -31.7030   28.0510 C.ar  220  TRP220      0.0003
    127  CD1        3.1400  -32.3980   28.9880 C.ar  220  TRP220      0.0946
    128  CD2        3.3650  -31.2870   27.0630 C.ar  220  TRP220      0.0152
    129  NE1        4.4650  -32.4490   28.6320 N.ar  220  TRP220     -0.2442
    130  CE2        4.6310  -31.7720   27.4520 C.ar  220  TRP220      0.0810
    131  CE3        3.2540  -30.5510   25.8780 C.ar  220  TRP220      0.0012
    132  CZ2        5.7830  -31.5460   26.6950 C.ar  220  TRP220      0.0191
    133  CZ3        4.4010  -30.3260   25.1240 C.ar  220  TRP220      0.0001
    134  CH2        5.6490  -30.8230   25.5370 C.ar  220  TRP220      0.0015
    135  N         -4.0370  -30.8640   24.1520 N.3   225  LEU225     -0.1231
    136  CA        -3.7330  -31.7980   23.0790 C.3   225  LEU225      0.1693
    137  C         -4.7660  -32.7720   22.5530 C.2   225  LEU225      0.2592
    138  O         -5.0730  -33.7810   23.1810 O.2   225  LEU225     -0.2718
    139  CB        -2.4880  -32.5650   23.4880 C.3   225  LEU225      0.0284
    140  CG        -1.3560  -31.5570   23.6770 C.3   225  LEU225      0.0019
    141  CD1       -0.2760  -32.1110   24.5710 C.3   225  LEU225      0.0001
    142  CD2       -0.8210  -31.1700   22.2980 C.3   225  LEU225      0.0001
    143  N         -5.2760  -32.4740   21.3700 N.am  226  HIS226     -0.1962
    144  CA        -6.2490  -33.3410   20.7400 C.3   226  HIS226      0.1772
    145  C         -5.4900  -34.1820   19.7380 C.2   226  HIS226      0.2462
    146  O         -4.4650  -33.7550   19.2090 O.2   226  HIS226     -0.2730
    147  CB        -7.3260  -32.5230   20.0300 C.3   226  HIS226      0.0785
    148  CG        -8.3050  -31.8780   20.9620 C.ar  226  HIS226      0.0821
    149  ND1       -9.2200  -32.6020   21.6970 N.ar  226  HIS226     -0.2267
    150  CD2       -8.5090  -30.5770   21.2820 C.ar  226  HIS226      0.1154
    151  CE1       -9.9470  -31.7740   22.4280 C.ar  226  HIS226      0.1986
    152  NE2       -9.5350  -30.5400   22.1960 N.ar  226  HIS226     -0.2212
    153  N         -5.9780  -35.3980   19.4730 N.am  227  PRO227     -0.2727
    154  CA        -5.3820  -36.3550   18.5370 C.3   227  PRO227      0.1402
    155  C         -5.0990  -35.7730   17.1700 C.2   227  PRO227      0.2269
    156  O         -4.0970  -36.1040   16.5530 O.2   227  PRO227     -0.2865
    157  CB        -6.4250  -37.4600   18.4730 C.3   227  PRO227      0.0296
    158  CG        -6.9790  -37.4570   19.8680 C.3   227  PRO227      0.0237
    159  CD        -7.1650  -35.9770   20.1260 C.3   227  PRO227      0.0939
    160  N         -1.1790  -30.7280   13.1460 N.3   308  TYR308     -0.1241
    161  CA         0.0450  -31.4960   13.3120 C.3   308  TYR308      0.1605
    162  C          0.8520  -31.6470   12.0260 C.2   308  TYR308      0.2264
    163  O          0.3570  -31.4710   10.8970 O.2   308  TYR308     -0.2867
    164  CB        -0.2510  -32.8700   13.8970 C.3   308  TYR308      0.0534
    165  CG        -0.7640  -32.8050   15.3160 C.ar  308  TYR308     -0.0201
    166  CD1       -0.0410  -32.1410   16.3060 C.ar  308  TYR308     -0.0009
    167  CD2       -1.9910  -33.3840   15.6680 C.ar  308  TYR308     -0.0009
    168  CE1       -0.5210  -32.0500   17.6170 C.ar  308  TYR308      0.0417
    169  CE2       -2.4890  -33.2980   16.9760 C.ar  308  TYR308      0.0417
    170  CZ        -1.7470  -32.6290   17.9490 C.ar  308  TYR308      0.1957
    171  OH        -2.2260  -32.5400   19.2490 O.3   308  TYR308     -0.2866
@<TRIPOS>BOND
     1   163   162    2
     2   162   161    1
     3    21    20    1
     4    21    22    1
     5    20    17    1
     6   160   161    1
     7   161   164    1
     8    33    32    1
     9    23    22    1
    10    23    24    1
    11    17    18    1
    12    17    16    1
    13   164   165    1
    14    11    10    2
    15    18    19    2
    16    32    31    1
    17    16    10   am
    18    10     9    1
    19    25    26    1
    20   165   167   ar
    21   165   166   ar
    22    26    27    1
    23    26    29    1
    24   167   169   ar
    25    31    30    1
    26    27    28    2
    27     9     8    1
    28     9    12    1
    29   166   168   ar
    30    30    29    1
    31    46    45    1
    32   156   155    2
    33   169   170   ar
    34   155   154    1
    35    12    13    1
    36   168   170   ar
    37    45    47    1
    38    45    42    1
    39   170   171    1
    40    41    42    1
    41   102   101    2
    42   157   154    1
    43   157   158    1
    44   154   153    1
    45    42    43    1
    46   101   100    1
    47    13    15    1
    48    13    14    1
    49   146   145    2
    50   153   145   am
    51   153   159    1
    52   145   144    1
    53   100    99    1
    54   158   159    1
    55   147   144    1
    56   147   148    1
    57    43    44    2
    58    43    48   am
    59    40    38    1
    60   144   143    1
    61    48    49    1
    62    99    94   am
    63   148   150   ar
    64   148   149   ar
    65    34    35    1
    66   150   152   ar
    67   143   137   am
    68     5     2    1
    69     5     6    1
    70   149   151   ar
    71     3     2    1
    72     3     4    2
    73     2     1    1
    74    38    35    1
    75    38    39    1
    76    94    95    2
    77    94    93    1
    78    35    36    1
    79    51    50    2
    80   152   151   ar
    81    49    50    1
    82    49    52    1
    83   142   140    1
    84    97    96    1
    85   137   136    1
    86   137   138    2
    87    53    52    1
    88    53    55    1
    89    50    56   am
    90     6     7    1
    91    52    54    1
    92    93    96    1
    93    93    92    1
    94   136   139    1
    95   136   135    1
    96     1     7    1
    97   108   107    1
    98   108   109    1
    99    96    98    1
   100   139   140    1
   101    36    37    2
   102   107   104    1
   103    56    57    1
   104   140   141    1
   105    63    65   ar
   106    63    61   ar
   107    60    57    1
   108    60    61    1
   109    83    82    2
   110    57    58    1
   111    92    82   am
   112    65    66   ar
   113   109   103    1
   114    61    62   ar
   115    82    81    1
   116   133   134   ar
   117   133   131   ar
   118   104   103    1
   119   104   105    1
   120   119   117   ar
   121   119   120   ar
   122    84    81    1
   123    84    85    1
   124   117   115   ar
   125   134   132   ar
   126    66    67    1
   127    66    64   ar
   128   105   106    2
   129    58    59    2
   130    62    64   ar
   131    81    80    1
   132   131   128   ar
   133   110   111    1
   134    87    85   ar
   135    87    89   ar
   136    85    86   ar
   137   120   118   ar
   138   113   112    2
   139   115   114    1
   140   115   116   ar
   141   132   130   ar
   142   114   111    1
   143   128   130   ar
   144   128   126   ar
   145   111   112    1
   146    89    90   ar
   147    86    88   ar
   148   130   129   ar
   149   118   116   ar
   150   124   123    2
   151   125   126    1
   152   125   122    1
   153   126   127   ar
   154    90    88   ar
   155    90    91    1
   156   129   127   ar
   157   121   122    1
   158   123   122    1
   159    75    77   ar
   160    75    73   ar
   161    68    69    1
   162    72    69    1
   163    72    73    1
   164    77    78   ar
   165    69    70    1
   166    73    74   ar
   167    78    79    1
   168    78    76   ar
   169    74    76   ar
   170    70    71    2
