@<TRIPOS>MOLECULE
tmp/1tl2A01.pdb
 108 110 0 0 0
SMALL
GASTEIGER

@<TRIPOS>ATOM
      1  N        -17.8610   23.5930   23.8840 N.3    23  LYS23      -0.1231
      2  CA       -17.0620   23.4160   25.0790 C.3    23  LYS23       0.1693
      3  C        -16.4460   22.0480   25.2570 C.2    23  LYS23       0.2592
      4  O        -15.6250   21.8800   26.1700 O.2    23  LYS23      -0.2718
      5  CB       -17.9040   23.7940   26.3100 C.3    23  LYS23       0.0285
      6  CG       -18.9680   22.7610   26.6420 C.3    23  LYS23       0.0035
      7  CD       -19.6450   23.0920   27.9680 C.3    23  LYS23       0.0206
      8  CE       -20.2760   21.8210   28.5360 C.3    23  LYS23       0.1093
      9  NZ       -21.3600   21.3360   27.6310 N.3    23  LYS23      -0.1314
     10  N        -16.7570   21.0550   24.4340 N.am   24  ASN24      -0.1960
     11  CA       -16.1470   19.7460   24.5340 C.3    24  ASN24       0.1819
     12  C        -14.9220   19.6460   23.6380 C.2    24  ASN24       0.2621
     13  O        -14.1770   18.6680   23.6730 O.2    24  ASN24      -0.2715
     14  CB       -17.1540   18.6360   24.2090 C.3    24  ASN24       0.1195
     15  CG       -18.2330   18.5650   25.2760 C.2    24  ASN24       0.2630
     16  OD1      -17.9850   18.7780   26.4620 O.2    24  ASN24      -0.2716
     17  ND2      -19.4490   18.2750   24.8330 N.am   24  ASN24      -0.0877
     18  N        -14.6870   20.6840   22.8460 N.am   25  ASP25      -0.1957
     19  CA       -13.5370   20.6940   21.9330 C.3    25  ASP25       0.1840
     20  C        -12.3200   21.2050   22.6940 C.2    25  ASP25       0.2622
     21  O        -12.2620   22.3720   23.0960 O.2    25  ASP25      -0.2715
     22  CB       -13.9460   21.5570   20.7400 C.3    25  ASP25       0.1450
     23  CG       -12.9290   21.6740   19.6390 C.2    25  ASP25       0.3671
     24  OD1      -11.8600   21.0370   19.7420 O.co2  25  ASP25      -0.2456
     25  OD2      -13.1810   22.4080   18.6500 O.co2  25  ASP25      -0.2456
     26  N        -11.3720   20.3260   22.9930 N.am   26  ASN26      -0.1958
     27  CA       -10.1290   20.7080   23.6670 C.3    26  ASN26       0.1819
     28  C         -9.1710   21.2980   22.6310 C.2    26  ASN26       0.2621
     29  O         -8.4750   20.5840   21.9120 O.2    26  ASN26      -0.2715
     30  CB        -9.5140   19.4860   24.3580 C.3    26  ASN26       0.1195
     31  CG        -8.3270   19.8640   25.2280 C.2    26  ASN26       0.2630
     32  OD1       -7.6260   20.8450   24.9530 O.2    26  ASN26      -0.2716
     33  ND2       -8.0590   19.0790   26.2650 N.am   26  ASN26      -0.0877
     34  N         -9.1940   22.6140   22.4660 N.am   27  TRP27      -0.1960
     35  CA        -8.4990   23.3030   21.3830 C.3    27  TRP27       0.1771
     36  C         -6.9870   23.1530   21.4490 C.2    27  TRP27       0.2619
     37  O         -6.2870   22.8860   20.4740 O.2    27  TRP27      -0.2715
     38  CB        -8.8910   24.7970   21.4280 C.3    27  TRP27       0.0590
     39  CG        -8.3760   25.6060   20.2850 C.ar   27  TRP27       0.0006
     40  CD1       -8.9000   25.6560   19.0250 C.ar   27  TRP27       0.0946
     41  CD2       -7.1970   26.4230   20.2530 C.ar   27  TRP27       0.0152
     42  NE1       -8.1390   26.4900   18.2260 N.ar   27  TRP27      -0.2442
     43  CE2       -7.0810   26.9550   18.9580 C.ar   27  TRP27       0.0810
     44  CE3       -6.2420   26.7790   21.2270 C.ar   27  TRP27       0.0012
     45  CZ2       -6.0620   27.8330   18.6040 C.ar   27  TRP27       0.0191
     46  CZ3       -5.2220   27.6300   20.8560 C.ar   27  TRP27       0.0001
     47  CH2       -5.1260   28.1550   19.5560 C.ar   27  TRP27       0.0015
     48  N         -6.4570   23.3110   22.6560 N.am   28  LEU28      -0.1977
     49  CA        -5.0190   23.2000   22.9050 C.3    28  LEU28       0.1596
     50  C         -4.4770   21.8270   22.5510 C.2    28  LEU28       0.2287
     51  O         -3.3770   21.6920   22.0090 O.2    28  LEU28      -0.2864
     52  CB        -4.7910   23.5110   24.3760 C.3    28  LEU28       0.0297
     53  CG        -3.7340   24.5090   24.8030 C.3    28  LEU28       0.0022
     54  CD1       -3.5910   25.6880   23.8600 C.3    28  LEU28       0.0001
     55  CD2       -4.0490   24.9730   26.2320 C.3    28  LEU28       0.0001
     56  N        -18.0750   28.4380   23.8560 N.3   222  ILE222     -0.1231
     57  CA       -17.2670   27.5690   23.0080 C.3   222  ILE222      0.1692
     58  C        -16.0460   27.0920   23.7770 C.2   222  ILE222      0.2593
     59  O        -15.2120   26.3900   23.2220 O.2   222  ILE222     -0.2718
     60  CB       -16.8870   28.2380   21.6760 C.3   222  ILE222      0.0266
     61  CG1      -16.2040   29.5890   21.9050 C.3   222  ILE222      0.0019
     62  CG2      -18.1500   28.3900   20.8270 C.3   222  ILE222      0.0020
     63  CD1      -15.5070   30.1410   20.6580 C.3   222  ILE222      0.0001
     64  N        -15.9830   27.4460   25.0580 N.am  223  GLY223     -0.1942
     65  CA       -14.8040   26.9840   25.8100 C.3   223  GLY223      0.2014
     66  C        -14.9790   27.1750   27.2910 C.2   223  GLY223      0.2639
     67  O        -15.4960   28.1950   27.7650 O.2   223  GLY223     -0.2714
     68  N        -14.5190   26.1520   28.0220 N.am  224  ASN224     -0.1958
     69  CA       -14.6330   26.2600   29.4750 C.3   224  ASN224      0.1819
     70  C        -13.3160   25.9020   30.1470 C.2   224  ASN224      0.2622
     71  O        -12.9640   24.7280   30.2680 O.2   224  ASN224     -0.2715
     72  CB       -15.7760   25.4110   30.0320 C.3   224  ASN224      0.1195
     73  CG       -16.2370   26.0420   31.3480 C.2   224  ASN224      0.2630
     74  OD1      -15.4090   26.5420   32.1230 O.2   224  ASN224     -0.2716
     75  ND2      -17.5490   26.0410   31.5590 N.am  224  ASN224     -0.0877
     76  N        -12.5820   26.9240   30.5460 N.am  225  GLY225     -0.1940
     77  CA       -11.3320   26.7340   31.2550 C.3   225  GLY225      0.2014
     78  C        -10.1020   27.0050   30.4060 C.2   225  GLY225      0.2639
     79  O         -9.9950   26.5680   29.2520 O.2   225  GLY225     -0.2714
     80  N         -9.1460   27.7040   31.0430 N.am  226  GLY226     -0.1939
     81  CA        -7.8370   27.8510   30.4410 C.3   226  GLY226      0.2014
     82  C         -7.6640   29.0700   29.5570 C.2   226  GLY226      0.2638
     83  O         -6.5110   29.4430   29.3240 O.2   226  GLY226     -0.2714
     84  N         -8.7340   29.7180   29.1070 N.am  227  TRP227     -0.1973
     85  CA        -8.6290   30.8410   28.1950 C.3   227  TRP227      0.1640
     86  C         -8.1000   32.1140   28.8450 C.2   227  TRP227      0.2290
     87  O         -7.3770   32.8700   28.1690 O.2   227  TRP227     -0.2864
     88  CB        -9.9850   31.1010   27.4860 C.3   227  TRP227      0.0576
     89  CG       -10.3790   29.8830   26.6790 C.ar  227  TRP227      0.0006
     90  CD1      -11.1930   28.8660   27.0900 C.ar  227  TRP227      0.0946
     91  CD2       -9.8570   29.4900   25.4150 C.ar  227  TRP227      0.0152
     92  NE1      -11.2660   27.8920   26.1310 N.ar  227  TRP227     -0.2442
     93  CE2      -10.4520   28.2500   25.0800 C.ar  227  TRP227      0.0810
     94  CE3       -8.9890   30.0800   24.4930 C.ar  227  TRP227      0.0012
     95  CZ2      -10.1750   27.5960   23.8910 C.ar  227  TRP227      0.0191
     96  CZ3       -8.7090   29.4300   23.3110 C.ar  227  TRP227      0.0001
     97  CH2       -9.3380   28.2090   22.9920 C.ar  227  TRP227      0.0015
     98  N         -4.0510   32.6130   28.4470 N.3   230  PHE230     -0.1241
     99  CA        -3.4030   33.0590   27.2200 C.3   230  PHE230      0.1605
    100  C         -2.8700   34.4740   27.4410 C.2   230  PHE230      0.2264
    101  O         -3.4610   35.2990   28.1280 O.2   230  PHE230     -0.2867
    102  CB        -4.3760   33.0250   26.0350 C.3   230  PHE230      0.0534
    103  CG        -4.5480   31.6450   25.4540 C.ar  230  PHE230     -0.0203
    104  CD1       -5.2590   30.6820   26.1500 C.ar  230  PHE230     -0.0042
    105  CD2       -3.9660   31.2880   24.2620 C.ar  230  PHE230     -0.0042
    106  CE1       -5.4500   29.3960   25.6390 C.ar  230  PHE230     -0.0003
    107  CE2       -4.1160   30.0090   23.7470 C.ar  230  PHE230     -0.0003
    108  CZ        -4.8510   29.0620   24.4490 C.ar  230  PHE230     -0.0000
@<TRIPOS>BOND
     1    42    43   ar
     2    42    40   ar
     3    45    43   ar
     4    45    47   ar
     5    25    23   ar
     6    43    41   ar
     7    40    39   ar
     8    47    46   ar
     9    23    24   ar
    10    23    22    1
    11    41    39   ar
    12    41    44   ar
    13    39    38    1
    14    37    36    2
    15    63    61    1
    16    22    19    1
    17    62    60    1
    18    46    44   ar
    19    35    38    1
    20    35    36    1
    21    35    34    1
    22    36    48   am
    23    60    61    1
    24    60    57    1
    25    29    28    2
    26    19    20    1
    27    19    18    1
    28    51    50    2
    29    34    28   am
    30    50    49    1
    31    28    27    1
    32    48    49    1
    33    20    26   am
    34    20    21    2
    35    18    12   am
    36    49    52    1
    37    97    96   ar
    38    97    95   ar
    39    26    27    1
    40    57    58    1
    41    57    56    1
    42    59    58    2
    43    96    94   ar
    44    12    13    2
    45    12    11    1
    46    27    30    1
    47   107   105   ar
    48   107   108   ar
    49    58    64   am
    50    54    53    1
    51     1     2    1
    52    95    93   ar
    53    14    11    1
    54    14    15    1
    55   105   103   ar
    56    30    31    1
    57    52    53    1
    58    10    11    1
    59    10     3   am
    60   108   106   ar
    61    94    91   ar
    62    53    55    1
    63    17    15   am
    64    32    31    2
    65    64    65    1
    66     2     3    1
    67     2     5    1
    68    93    91   ar
    69    93    92   ar
    70    31    33   am
    71     3     4    2
    72    15    16    2
    73    91    89   ar
    74   103   102    1
    75   103   104   ar
    76   106   104   ar
    77    65    66    1
    78   102    99    1
    79    92    90   ar
    80     5     6    1
    81     6     7    1
    82    89    90   ar
    83    89    88    1
    84    99   100    1
    85    99    98    1
    86    66    67    2
    87    66    68   am
    88   100   101    2
    89    88    85    1
    90     9     8    1
    91     7     8    1
    92    68    69    1
    93    87    86    2
    94    85    86    1
    95    85    84    1
    96    84    82   am
    97    79    78    2
    98    83    82    2
    99    69    72    1
   100    69    70    1
   101    82    81    1
   102    72    73    1
   103    70    71    2
   104    70    76   am
   105    78    80   am
   106    78    77    1
   107    81    80    1
   108    76    77    1
   109    73    75   am
   110    73    74    2
