@<TRIPOS>MOLECULE
tmp/1tl2A03.pdb
 115 117 0 0 0
SMALL
GASTEIGER

@<TRIPOS>ATOM
      1  N         11.4970   46.7100   11.5830 N.3    81  ILE81      -0.1231
      2  CA        10.9810   47.9160   10.9370 C.3    81  ILE81       0.1692
      3  C         10.9310   49.1070   11.8680 C.2    81  ILE81       0.2593
      4  O         10.5330   50.2100   11.4890 O.2    81  ILE81      -0.2718
      5  CB         9.6120   47.6160   10.2930 C.3    81  ILE81       0.0266
      6  CG1        8.7250   46.7540   11.2040 C.3    81  ILE81       0.0019
      7  CG2        9.8520   46.8630    8.9770 C.3    81  ILE81       0.0020
      8  CD1        7.2690   46.6790   10.7890 C.3    81  ILE81       0.0001
      9  N         11.3150   48.9350   13.1140 N.am   82  GLY82      -0.1942
     10  CA        11.3040   49.9890   14.1130 C.3    82  GLY82       0.2014
     11  C         12.4390   49.7440   15.1090 C.2    82  GLY82       0.2639
     12  O         12.5480   48.6050   15.5680 O.2    82  GLY82      -0.2714
     13  N         13.2760   50.7620   15.3350 N.am   83  ASN83      -0.1958
     14  CA        14.3900   50.5590   16.2470 C.3    83  ASN83       0.1819
     15  C         14.1400   51.1200   17.6420 C.2    83  ASN83       0.2622
     16  O         14.9560   50.8700   18.5420 O.2    83  ASN83      -0.2715
     17  CB        15.7350   51.1180   15.7630 C.3    83  ASN83       0.1195
     18  CG        16.8470   50.1620   16.1760 C.2    83  ASN83       0.2630
     19  OD1       17.4350   49.5670   15.2650 O.2    83  ASN83      -0.2716
     20  ND2       17.1310   50.0010   17.4600 N.am   83  ASN83      -0.0877
     21  N         13.0430   51.8540   17.8330 N.am   84  GLY84      -0.1940
     22  CA        12.8280   52.3490   19.1940 C.3    84  GLY84       0.2014
     23  C         11.5240   53.0910   19.3530 C.2    84  GLY84       0.2639
     24  O         10.9740   53.5980   18.3850 O.2    84  GLY84      -0.2714
     25  N         11.0420   53.1710   20.5890 N.am   85  GLY85      -0.1939
     26  CA         9.8240   53.8700   20.8990 C.3    85  GLY85       0.2014
     27  C          8.5300   53.0850   20.7980 C.2    85  GLY85       0.2638
     28  O          7.4940   53.6440   21.1790 O.2    85  GLY85      -0.2714
     29  N          8.5470   51.8260   20.3930 N.am   86  TRP86      -0.1973
     30  CA         7.3380   51.0330   20.2230 C.3    86  TRP86       0.1640
     31  C          6.7120   50.5670   21.5160 C.2    86  TRP86       0.2290
     32  O          5.4920   50.3060   21.5140 O.2    86  TRP86      -0.2864
     33  CB         7.6140   49.8820   19.2240 C.3    86  TRP86       0.0576
     34  CG         7.9120   50.5320   17.8990 C.ar   86  TRP86       0.0006
     35  CD1        9.1490   50.8890   17.4330 C.ar   86  TRP86       0.0946
     36  CD2        6.9670   50.9590   16.9190 C.ar   86  TRP86       0.0152
     37  NE1        9.0200   51.5140   16.2240 N.ar   86  TRP86      -0.2442
     38  CE2        7.6970   51.5660   15.8750 C.ar   86  TRP86       0.0810
     39  CE3        5.5730   50.8980   16.8250 C.ar   86  TRP86       0.0012
     40  CZ2        7.0870   52.1010   14.7370 C.ar   86  TRP86       0.0191
     41  CZ3        4.9720   51.4370   15.6980 C.ar   86  TRP86       0.0001
     42  CH2        5.7250   52.0280   14.6730 C.ar   86  TRP86       0.0015
     43  N          6.0550   52.6410   23.8870 N.3    88  GLN88      -0.1231
     44  CA         5.2490   53.7690   24.3390 C.3    88  GLN88       0.1698
     45  C          3.7680   53.5830   24.0250 C.2    88  GLN88       0.2592
     46  O          2.9430   54.2570   24.6420 O.2    88  GLN88      -0.2718
     47  CB         5.7630   55.0580   23.6520 C.3    88  GLN88       0.0381
     48  CG         5.2120   55.2640   22.2420 C.3    88  GLN88       0.0905
     49  CD         5.6910   56.5030   21.5060 C.2    88  GLN88       0.2608
     50  OE1        4.9770   57.5250   21.4850 O.2    88  GLN88      -0.2717
     51  NE2        6.8790   56.4480   20.8970 N.am   88  GLN88      -0.0878
     52  N          3.3950   52.7350   23.0570 N.am   89  PHE89      -0.1976
     53  CA         1.9940   52.6350   22.6830 C.3    89  PHE89       0.1639
     54  C          1.1430   51.8490   23.6620 C.2    89  PHE89       0.2290
     55  O          1.5420   50.8340   24.2390 O.2    89  PHE89      -0.2864
     56  CB         1.9080   52.0290   21.2580 C.3    89  PHE89       0.0560
     57  CG         2.5970   52.9290   20.2630 C.ar   89  PHE89      -0.0200
     58  CD1        2.0330   54.1360   19.9080 C.ar   89  PHE89      -0.0042
     59  CD2        3.8030   52.5660   19.6870 C.ar   89  PHE89      -0.0042
     60  CE1        2.6690   54.9700   18.9960 C.ar   89  PHE89      -0.0003
     61  CE2        4.4420   53.3850   18.7920 C.ar   89  PHE89      -0.0003
     62  CZ         3.8740   54.5880   18.4380 C.ar   89  PHE89      -0.0000
     63  N         13.5320   50.4820    9.2330 N.3   117  ASP117     -0.1225
     64  CA        14.1940   50.9560   10.4120 C.3   117  ASP117      0.1805
     65  C         14.3420   52.4720   10.4990 C.2   117  ASP117      0.2598
     66  O         14.6430   52.9940   11.5700 O.2   117  ASP117     -0.2718
     67  CB        15.6880   50.5400   10.3620 C.3   117  ASP117      0.1424
     68  CG        16.0230   49.2180   10.9800 C.2   117  ASP117      0.3668
     69  OD1       16.2850   49.1670   12.1990 O.co2 117  ASP117     -0.2456
     70  OD2       16.0700   48.2160   10.2240 O.co2 117  ASP117     -0.2456
     71  N         14.5400   53.0840    9.3390 N.am  118  THR118     -0.1939
     72  CA        14.8480   54.5000    9.2310 C.3   118  THR118      0.2028
     73  C         13.5920   55.3450    9.1020 C.2   118  THR118      0.2642
     74  O         13.6660   56.5670    9.0380 O.2   118  THR118     -0.2714
     75  CB        15.7910   54.7340    8.0340 C.3   118  THR118      0.1808
     76  OG1       15.1800   54.3480    6.7970 O.3   118  THR118     -0.2208
     77  CG2       17.0290   53.8490    8.1930 C.3   118  THR118      0.0379
     78  N         12.4280   54.7140    9.0550 N.am  119  ASP119     -0.1957
     79  CA        11.1650   55.4390    8.9560 C.3   119  ASP119      0.1840
     80  C         10.7560   55.9170   10.3400 C.2   119  ASP119      0.2622
     81  O         10.4960   55.0660   11.2080 O.2   119  ASP119     -0.2715
     82  CB        10.1440   54.4880    8.3490 C.3   119  ASP119      0.1450
     83  CG         8.8200   55.0850    7.9190 C.2   119  ASP119      0.3671
     84  OD1        8.4840   56.2350    8.2510 O.co2 119  ASP119     -0.2456
     85  OD2        8.0990   54.3320    7.2110 O.co2 119  ASP119     -0.2456
     86  N         10.6750   57.2250   10.5740 N.am  120  ASN120     -0.1958
     87  CA        10.1800   57.7100   11.8640 C.3   120  ASN120      0.1819
     88  C          8.6480   57.7380   11.7660 C.2   120  ASN120      0.2621
     89  O          8.0250   58.7240   11.3820 O.2   120  ASN120     -0.2715
     90  CB        10.7340   59.0700   12.2530 C.3   120  ASN120      0.1195
     91  CG        10.3150   59.4910   13.6490 C.2   120  ASN120      0.2630
     92  OD1        9.4230   58.9380   14.2980 O.2   120  ASN120     -0.2716
     93  ND2       10.9610   60.5410   14.1450 N.am  120  ASN120     -0.0877
     94  N          8.0530   56.5890   12.0950 N.am  121  TRP121     -0.1960
     95  CA         6.6180   56.4160   11.9470 C.3   121  TRP121      0.1771
     96  C          5.8030   57.4230   12.7250 C.2   121  TRP121      0.2619
     97  O          4.9520   58.0960   12.1370 O.2   121  TRP121     -0.2715
     98  CB         6.2280   54.9740   12.3280 C.3   121  TRP121      0.0590
     99  CG         4.8060   54.7010   11.9220 C.ar  121  TRP121      0.0006
    100  CD1        4.3620   54.3190   10.6920 C.ar  121  TRP121      0.0946
    101  CD2        3.6560   54.8070   12.7600 C.ar  121  TRP121      0.0152
    102  NE1        3.0010   54.1740   10.7160 N.ar  121  TRP121     -0.2442
    103  CE2        2.5320   54.4710   11.9670 C.ar  121  TRP121      0.0810
    104  CE3        3.4470   55.1610   14.0950 C.ar  121  TRP121      0.0012
    105  CZ2        1.2380   54.4640   12.4760 C.ar  121  TRP121      0.0191
    106  CZ3        2.1570   55.1580   14.5960 C.ar  121  TRP121      0.0001
    107  CH2        1.0670   54.8180   13.7900 C.ar  121  TRP121      0.0015
    108  N          6.0480   57.5810   14.0140 N.am  122  ILE122     -0.1977
    109  CA         5.2780   58.5080   14.8520 C.3   122  ILE122      0.1596
    110  C          5.3590   59.9240   14.3290 C.2   122  ILE122      0.2287
    111  O          4.3440   60.6300   14.3670 O.2   122  ILE122     -0.2864
    112  CB         5.5890   58.3460   16.3420 C.3   122  ILE122      0.0276
    113  CG1        4.4890   58.9190   17.2420 C.3   122  ILE122      0.0022
    114  CG2        6.9260   58.9590   16.7570 C.3   122  ILE122      0.0022
    115  CD1        3.0730   58.5300   16.9040 C.3   122  ILE122      0.0001
@<TRIPOS>BOND
     1    76    75    1
     2    85    83   ar
     3    83    84   ar
     4    83    82    1
     5    75    77    1
     6    75    72    1
     7    82    79    1
     8    79    78    1
     9    79    80    1
    10     7     5    1
    11    74    73    2
    12    78    73   am
    13    73    72    1
    14    72    71    1
    15    63    64    1
    16    71    65   am
    17    70    68   ar
    18     5     2    1
    19     5     6    1
    20    80    86   am
    21    80    81    2
    22    67    64    1
    23    67    68    1
    24    64    65    1
    25    65    66    2
    26    86    87    1
    27   100   102   ar
    28   100    99   ar
    29   102   103   ar
    30     8     6    1
    31     2     1    1
    32     2     3    1
    33    68    69   ar
    34    89    88    2
    35     4     3    2
    36    88    87    1
    37    88    94   am
    38    87    90    1
    39     3     9   am
    40    99    98    1
    41    99   101   ar
    42    95    94    1
    43    95    98    1
    44    95    96    1
    45   103   105   ar
    46   103   101   ar
    47    97    96    2
    48    90    91    1
    49   105   107   ar
    50    96   108   am
    51   101   104   ar
    52     9    10    1
    53    91    93   am
    54    91    92    2
    55   107   106   ar
    56   108   109    1
    57   104   106   ar
    58    10    11    1
    59   110   111    2
    60   110   109    1
    61    42    40   ar
    62    42    41   ar
    63    40    38   ar
    64   109   112    1
    65    11    13   am
    66    11    12    2
    67    19    18    2
    68    13    14    1
    69    41    39   ar
    70    17    18    1
    71    17    14    1
    72    38    37   ar
    73    38    36   ar
    74    18    20   am
    75    37    35   ar
    76    14    15    1
    77   112   114    1
    78   112   113    1
    79    39    36   ar
    80   115   113    1
    81    36    34   ar
    82    35    34   ar
    83    15    21   am
    84    15    16    2
    85    21    22    1
    86    34    33    1
    87    24    23    2
    88    62    61   ar
    89    62    60   ar
    90    61    59   ar
    91    60    58   ar
    92    22    23    1
    93    33    30    1
    94    23    25   am
    95    59    57   ar
    96    58    57   ar
    97    30    29    1
    98    30    31    1
    99    57    56    1
   100    29    27   am
   101    25    26    1
   102    27    26    1
   103    27    28    2
   104    51    49   am
   105    56    53    1
   106    50    49    2
   107    49    48    1
   108    32    31    2
   109    48    47    1
   110    53    52    1
   111    53    54    1
   112    52    45   am
   113    47    44    1
   114    54    55    2
   115    43    44    1
   116    45    44    1
   117    45    46    2
