@<TRIPOS>MOLECULE
tmp/1tl2A00.pdb
 108 110 0 0 0
SMALL
GASTEIGER

@<TRIPOS>ATOM
      1  N          3.0730   26.3440   16.5600 N.3    34  ILE34      -0.1231
      2  CA         3.8250   27.0450   15.5210 C.3    34  ILE34       0.1692
      3  C          4.9990   27.8320   16.1190 C.2    34  ILE34       0.2593
      4  O          5.6740   28.5660   15.3870 O.2    34  ILE34      -0.2718
      5  CB         2.9670   28.0030   14.6800 C.3    34  ILE34       0.0266
      6  CG1        2.1590   28.9480   15.5780 C.3    34  ILE34       0.0019
      7  CG2        2.0550   27.1730   13.7700 C.3    34  ILE34       0.0020
      8  CD1        1.3190   29.9950   14.8580 C.3    34  ILE34       0.0001
      9  N          5.2300   27.6670   17.4110 N.am   35  GLY35      -0.1942
     10  CA         6.4110   28.2980   18.0160 C.3    35  GLY35       0.2014
     11  C          6.7120   27.6490   19.3600 C.2    35  GLY35       0.2639
     12  O          5.8240   27.5790   20.2030 O.2    35  GLY35      -0.2714
     13  N          7.9430   27.2110   19.5640 N.am   36  LYS36      -0.1963
     14  CA         8.3200   26.5380   20.8020 C.3    36  LYS36       0.1728
     15  C          8.6460   27.4330   21.9780 C.2    36  LYS36       0.2617
     16  O          8.6690   26.9390   23.1180 O.2    36  LYS36      -0.2715
     17  CB         9.5220   25.6190   20.5300 C.3    36  LYS36       0.0311
     18  CG         9.1290   24.3860   19.7190 C.3    36  LYS36       0.0038
     19  CD        10.2100   23.3150   19.8510 C.3    36  LYS36       0.0206
     20  CE        11.4200   23.6820   18.9990 C.3    36  LYS36       0.1093
     21  NZ        11.7630   22.5830   18.0490 N.3    36  LYS36      -0.1314
     22  N          8.9310   28.7050   21.7670 N.am   37  GLY37      -0.1940
     23  CA         9.1540   29.6080   22.8950 C.3    37  GLY37       0.2014
     24  C          9.5930   30.9930   22.4200 C.2    37  GLY37       0.2639
     25  O          9.8130   31.1900   21.2350 O.2    37  GLY37      -0.2714
     26  N          9.6970   31.9220   23.3670 N.am   38  GLY38      -0.1939
     27  CA        10.1020   33.2850   23.0960 C.3    38  GLY38       0.2014
     28  C          8.9680   34.2670   22.8490 C.2    38  GLY38       0.2638
     29  O          9.2330   35.4410   22.6210 O.2    38  GLY38      -0.2714
     30  N          7.7210   33.8360   22.9100 N.am   39  TRP39      -0.1973
     31  CA         6.5590   34.6370   22.5870 C.3    39  TRP39       0.1640
     32  C          5.9430   35.3830   23.7460 C.2    39  TRP39       0.2290
     33  O          5.2700   36.3940   23.5240 O.2    39  TRP39      -0.2864
     34  CB         5.4750   33.7250   21.9430 C.3    39  TRP39       0.0576
     35  CG         6.0390   33.1160   20.6820 C.ar   39  TRP39       0.0006
     36  CD1        6.5870   31.8760   20.5900 C.ar   39  TRP39       0.0946
     37  CD2        6.1750   33.7180   19.3940 C.ar   39  TRP39       0.0152
     38  NE1        7.0520   31.6640   19.3080 N.ar   39  TRP39      -0.2442
     39  CE2        6.7770   32.7660   18.5490 C.ar   39  TRP39       0.0810
     40  CE3        5.7900   34.9430   18.8440 C.ar   39  TRP39       0.0012
     41  CZ2        7.0670   33.0140   17.2050 C.ar   39  TRP39       0.0191
     42  CZ3        6.0700   35.1810   17.5150 C.ar   39  TRP39       0.0001
     43  CH2        6.7030   34.2310   16.6910 C.ar   39  TRP39       0.0015
     44  N          6.6500   39.6040   24.1680 N.3    42  PHE42      -0.1241
     45  CA         6.1670   40.6360   23.2540 C.3    42  PHE42       0.1605
     46  C          5.1680   41.5250   23.9830 C.2    42  PHE42       0.2264
     47  O          4.3110   41.0180   24.7290 O.2    42  PHE42      -0.2867
     48  CB         5.4450   40.0150   22.0400 C.3    42  PHE42       0.0534
     49  CG         6.4310   39.4400   21.0470 C.ar   42  PHE42      -0.0203
     50  CD1        7.0130   38.2050   21.2690 C.ar   42  PHE42      -0.0042
     51  CD2        6.7670   40.1340   19.9010 C.ar   42  PHE42      -0.0042
     52  CE1        7.9280   37.6730   20.3790 C.ar   42  PHE42      -0.0003
     53  CE2        7.6720   39.6040   18.9980 C.ar   42  PHE42      -0.0003
     54  CZ         8.2630   38.3800   19.2340 C.ar   42  PHE42      -0.0000
     55  N          6.7350   24.4660   14.1990 N.3    70  ASP70      -0.1225
     56  CA         7.4000   24.7590   15.4610 C.3    70  ASP70       0.1805
     57  C          8.8840   25.0880   15.3780 C.2    70  ASP70       0.2598
     58  O          9.4050   25.7590   16.2780 O.2    70  ASP70      -0.2718
     59  CB         7.0890   23.6370   16.4530 C.3    70  ASP70       0.1424
     60  CG         7.6340   22.2760   16.0910 C.2    70  ASP70       0.3668
     61  OD1        8.5260   22.1600   15.2320 O.co2  70  ASP70      -0.2456
     62  OD2        7.1720   21.2640   16.6710 O.co2  70  ASP70      -0.2456
     63  N          9.5900   24.7270   14.3270 N.am   71  ASN71      -0.1960
     64  CA        11.0010   25.0110   14.1470 C.3    71  ASN71       0.1819
     65  C         11.2640   26.1500   13.1710 C.2    71  ASN71       0.2621
     66  O         12.3960   26.3730   12.7490 O.2    71  ASN71      -0.2715
     67  CB        11.7680   23.7540   13.7040 C.3    71  ASN71       0.1195
     68  CG        11.2110   23.1660   12.4250 C.2    71  ASN71       0.2630
     69  OD1       11.8120   23.3070   11.3570 O.2    71  ASN71      -0.2716
     70  ND2       10.0590   22.5070   12.5300 N.am   71  ASN71      -0.0877
     71  N         10.2360   26.9030   12.8030 N.am   72  ASP72      -0.1957
     72  CA        10.3850   28.0740   11.9420 C.3    72  ASP72       0.1840
     73  C         10.8690   29.1780   12.8800 C.2    72  ASP72       0.2622
     74  O         10.1640   29.5230   13.8420 O.2    72  ASP72      -0.2715
     75  CB         9.0520   28.4220   11.3010 C.3    72  ASP72       0.1450
     76  CG         9.0720   29.5590   10.3120 C.2    72  ASP72       0.3671
     77  OD1       10.1250   30.1990   10.1240 O.co2  72  ASP72      -0.2456
     78  OD2        8.0220   29.8260    9.6710 O.co2  72  ASP72      -0.2456
     79  N         12.0830   29.6540   12.6870 N.am   73  ASN73      -0.1958
     80  CA        12.6190   30.6590   13.6240 C.3    73  ASN73       0.1819
     81  C         12.1140   32.0050   13.1290 C.2    73  ASN73       0.2621
     82  O         12.7750   32.6390   12.3130 O.2    73  ASN73      -0.2715
     83  CB        14.1390   30.5820   13.6540 C.3    73  ASN73       0.1195
     84  CG        14.7710   31.6470   14.5210 C.2    73  ASN73       0.2630
     85  OD1       14.1170   32.5420   15.0560 O.2    73  ASN73      -0.2716
     86  ND2       16.0910   31.5700   14.6710 N.am   73  ASN73      -0.0877
     87  N         10.9410   32.4080   13.5990 N.am   74  TRP74      -0.1960
     88  CA        10.3150   33.6290   13.0990 C.3    74  TRP74       0.1771
     89  C         11.1790   34.8590   13.2680 C.2    74  TRP74       0.2619
     90  O         11.4390   35.5740   12.2940 O.2    74  TRP74      -0.2715
     91  CB         8.9450   33.8440   13.7720 C.3    74  TRP74       0.0590
     92  CG         8.2180   34.9980   13.1340 C.ar   74  TRP74       0.0006
     93  CD1        7.5460   35.0010   11.9400 C.ar   74  TRP74       0.0946
     94  CD2        8.1010   36.3140   13.6770 C.ar   74  TRP74       0.0152
     95  NE1        7.0040   36.2450   11.7150 N.ar   74  TRP74      -0.2442
     96  CE2        7.3270   37.0660   12.7660 C.ar   74  TRP74       0.0810
     97  CE3        8.5620   36.9230   14.8500 C.ar   74  TRP74       0.0012
     98  CZ2        7.0300   38.4080   12.9820 C.ar   74  TRP74       0.0191
     99  CZ3        8.2540   38.2560   15.0780 C.ar   74  TRP74       0.0001
    100  CH2        7.4880   38.9690   14.1380 C.ar   74  TRP74       0.0015
    101  N         11.7040   35.0710   14.4810 N.am   75  MET75      -0.1977
    102  CA        12.5360   36.2590   14.7110 C.3    75  MET75       0.1605
    103  C         13.8330   36.2420   13.9190 C.2    75  MET75       0.2287
    104  O         14.3500   37.3090   13.5710 O.2    75  MET75      -0.2864
    105  CB        12.8320   36.4380   16.2010 C.3    75  MET75       0.0413
    106  CG        11.6740   37.1520   16.9030 C.3    75  MET75       0.0598
    107  SD        11.7340   38.9400   16.5800 S.3    75  MET75      -0.1393
    108  CE        12.9370   39.3880   17.8470 C.3    75  MET75       0.0692
@<TRIPOS>BOND
     1    78    76   ar
     2    77    76   ar
     3    76    75    1
     4    75    72    1
     5    69    68    2
     6    95    93   ar
     7    95    96   ar
     8    93    92   ar
     9    72    71    1
    10    72    73    1
    11    90    89    2
    12    82    81    2
    13    68    70   am
    14    68    67    1
    15    79    73   am
    16    79    80    1
    17    66    65    2
    18    96    98   ar
    19    96    94   ar
    20    71    65   am
    21    73    74    2
    22    98   100   ar
    23    88    89    1
    24    88    87    1
    25    88    91    1
    26    81    87   am
    27    81    80    1
    28    92    94   ar
    29    92    91    1
    30    65    64    1
    31    89   101   am
    32   104   103    2
    33    80    83    1
    34    83    84    1
    35    94    97   ar
    36    67    64    1
    37     7     5    1
    38   103   102    1
    39   100    99   ar
    40    64    63    1
    41    55    56    1
    42    63    57   am
    43   101   102    1
    44    84    86   am
    45    84    85    2
    46     5     2    1
    47     5     6    1
    48   102   105    1
    49    97    99   ar
    50     8     6    1
    51    61    60   ar
    52    57    56    1
    53    57    58    2
    54     4     3    2
    55    56    59    1
    56     2     3    1
    57     2     1    1
    58    60    59    1
    59    60    62   ar
    60     3     9   am
    61   105   106    1
    62   107   106    1
    63   107   108    1
    64    43    41   ar
    65    43    42   ar
    66    41    39   ar
    67     9    10    1
    68    42    40   ar
    69    10    11    1
    70    21    20    1
    71    39    38   ar
    72    39    37   ar
    73    40    37   ar
    74    53    54   ar
    75    53    51   ar
    76    20    19    1
    77    54    52   ar
    78    38    36   ar
    79    11    13   am
    80    11    12    2
    81    37    35   ar
    82    13    14    1
    83    18    19    1
    84    18    17    1
    85    51    49   ar
    86    52    50   ar
    87    17    14    1
    88    36    35   ar
    89    35    34    1
    90    14    15    1
    91    49    50   ar
    92    49    48    1
    93    25    24    2
    94    22    15   am
    95    22    23    1
    96    34    31    1
    97    15    16    2
    98    48    45    1
    99    24    23    1
   100    24    26   am
   101    31    30    1
   102    31    32    1
   103    29    28    2
   104    28    30   am
   105    28    27    1
   106    27    26    1
   107    45    46    1
   108    45    44    1
   109    33    32    2
   110    46    47    2
