@<TRIPOS>MOLECULE
tmp/1tl2A04.pdb
 101 104 0 0 0
SMALL
GASTEIGER

@<TRIPOS>ATOM
      1  N        -23.8210   48.7300   24.4940 N.3   176  GLY176     -0.1210
      2  CA       -23.7450   47.9620   25.7450 C.3   176  GLY176      0.1956
      3  C        -23.5990   48.8930   26.9410 C.2   176  GLY176      0.2612
      4  O        -22.8150   49.8500   26.9070 O.2   176  GLY176     -0.2717
      5  N        -24.3050   48.5650   28.0340 N.am  177  GLN177     -0.1965
      6  CA       -24.3300   49.4620   29.1870 C.3   177  GLN177      0.1733
      7  C        -23.4870   48.9570   30.3420 C.2   177  GLN177      0.2617
      8  O        -23.0210   49.8150   31.1120 O.2   177  GLN177     -0.2715
      9  CB       -25.7600   49.7290   29.6610 C.3   177  GLN177      0.0408
     10  CG       -26.1660   51.1990   29.6460 C.3   177  GLN177      0.0908
     11  CD       -27.6530   51.3720   29.4070 C.2   177  GLN177      0.2608
     12  OE1      -28.0780   52.0940   28.5060 O.2   177  GLN177     -0.2717
     13  NE2      -28.4670   50.6980   30.2210 N.am  177  GLN177     -0.0878
     14  N        -23.2690   47.6660   30.5010 N.am  178  GLY178     -0.1940
     15  CA       -22.4030   47.1460   31.5470 C.3   178  GLY178      0.2014
     16  C        -21.8100   45.7740   31.2810 C.2   178  GLY178      0.2639
     17  O        -22.1250   45.1170   30.2870 O.2   178  GLY178     -0.2714
     18  N        -20.8580   45.3360   32.0960 N.am  179  GLY179     -0.1939
     19  CA       -20.1660   44.0780   32.0330 C.3   179  GLY179      0.2014
     20  C        -19.0150   43.9480   31.0460 C.2   179  GLY179      0.2638
     21  O        -18.2250   42.9920   31.0960 O.2   179  GLY179     -0.2714
     22  N        -18.7930   44.9190   30.1640 N.am  180  TRP180     -0.1973
     23  CA       -17.7450   44.8640   29.1500 C.3   180  TRP180      0.1640
     24  C        -16.3390   45.0020   29.6900 C.2   180  TRP180      0.2290
     25  O        -15.3480   44.5990   29.0570 O.2   180  TRP180     -0.2864
     26  CB       -18.0510   45.9130   28.0490 C.3   180  TRP180      0.0576
     27  CG       -19.3840   45.5420   27.4280 C.ar  180  TRP180      0.0006
     28  CD1      -20.6040   46.1180   27.6560 C.ar  180  TRP180      0.0946
     29  CD2      -19.5930   44.4600   26.5110 C.ar  180  TRP180      0.0152
     30  NE1      -21.5600   45.4480   26.9250 N.ar  180  TRP180     -0.2442
     31  CE2      -20.9630   44.4370   26.2070 C.ar  180  TRP180      0.0810
     32  CE3      -18.7360   43.5190   25.9210 C.ar  180  TRP180      0.0012
     33  CZ2      -21.5110   43.5070   25.3270 C.ar  180  TRP180      0.0191
     34  CZ3      -19.2890   42.5860   25.0390 C.ar  180  TRP180      0.0001
     35  CH2      -20.6610   42.5830   24.7470 C.ar  180  TRP180      0.0015
     36  N        -14.1250   41.4680   30.5780 N.3   183  PHE183     -0.1241
     37  CA       -13.4950   40.5560   29.6250 C.3   183  PHE183      0.1605
     38  C        -11.9750   40.7320   29.6350 C.2   183  PHE183      0.2264
     39  O        -11.4720   41.8490   29.7590 O.2   183  PHE183     -0.2867
     40  CB       -13.9960   40.8210   28.1910 C.3   183  PHE183      0.0534
     41  CG       -15.4340   40.4070   28.0010 C.ar  183  PHE183     -0.0203
     42  CD1      -16.4670   41.1740   28.5240 C.ar  183  PHE183     -0.0042
     43  CD2      -15.7460   39.2500   27.3050 C.ar  183  PHE183     -0.0042
     44  CE1      -17.7970   40.7950   28.3580 C.ar  183  PHE183     -0.0003
     45  CE2      -17.0780   38.8720   27.1540 C.ar  183  PHE183     -0.0003
     46  CZ       -18.1060   39.6400   27.6650 C.ar  183  PHE183     -0.0000
     47  N        -28.0800   49.2410   23.1120 N.3   211  ALA211     -0.1231
     48  CA       -27.6330   49.1370   24.4890 C.3   211  ALA211      0.1694
     49  C        -28.3300   48.0750   25.3260 C.2   211  ALA211      0.2592
     50  O        -27.7130   47.6420   26.2990 O.2   211  ALA211     -0.2718
     51  CB       -27.7530   50.4960   25.1780 C.3   211  ALA211      0.0304
     52  N        -29.5520   47.6590   24.9810 N.am  212  TYR212     -0.1962
     53  CA       -30.2500   46.6930   25.8410 C.3   212  TYR212      0.1771
     54  C        -30.1620   45.2620   25.3540 C.2   212  TYR212      0.2620
     55  O        -30.8770   44.3890   25.8500 O.2   212  TYR212     -0.2715
     56  CB       -31.7220   47.1230   25.9790 C.3   212  TYR212      0.0574
     57  CG       -31.7510   48.5770   26.4290 C.ar  212  TYR212     -0.0198
     58  CD1      -31.2910   48.9390   27.6840 C.ar  212  TYR212     -0.0009
     59  CD2      -32.0980   49.5670   25.5270 C.ar  212  TYR212     -0.0009
     60  CE1      -31.2640   50.2660   28.0710 C.ar  212  TYR212      0.0417
     61  CE2      -32.0660   50.8990   25.9020 C.ar  212  TYR212      0.0417
     62  CZ       -31.6600   51.2350   27.1690 C.ar  212  TYR212      0.1957
     63  OH       -31.6270   52.5680   27.5260 O.3   212  TYR212     -0.2866
     64  N        -29.2560   44.9790   24.4240 N.am  213  ASP213     -0.1957
     65  CA       -29.1010   43.5870   23.9670 C.3   213  ASP213      0.1840
     66  C        -28.2020   42.8680   24.9560 C.2   213  ASP213      0.2622
     67  O        -27.0320   43.2280   25.1040 O.2   213  ASP213     -0.2715
     68  CB       -28.5760   43.6730   22.5430 C.3   213  ASP213      0.1450
     69  CG       -28.3700   42.3910   21.7850 C.2   213  ASP213      0.3671
     70  OD1      -28.5520   41.2940   22.3420 O.co2 213  ASP213     -0.2456
     71  OD2      -27.8900   42.5000   20.6260 O.co2 213  ASP213     -0.2456
     72  N        -28.6900   41.8340   25.6240 N.am  214  ASN214     -0.1958
     73  CA       -27.9060   41.0530   26.5840 C.3   214  ASN214      0.1819
     74  C        -27.0650   40.0190   25.8680 C.2   214  ASN214      0.2621
     75  O        -27.4800   38.9000   25.5450 O.2   214  ASN214     -0.2715
     76  CB       -28.8380   40.4040   27.6160 C.3   214  ASN214      0.1195
     77  CG       -28.1020   39.8960   28.8370 C.2   214  ASN214      0.2630
     78  OD1      -26.9140   39.5580   28.7620 O.2   214  ASN214     -0.2716
     79  ND2      -28.8280   39.8400   29.9540 N.am  214  ASN214     -0.0877
     80  N        -25.8790   40.4540   25.4220 N.am  215  TRP215     -0.1960
     81  CA       -24.9900   39.6050   24.6260 C.3   215  TRP215      0.1771
     82  C        -24.5710   38.3380   25.3420 C.2   215  TRP215      0.2619
     83  O        -24.6300   37.2260   24.7980 O.2   215  TRP215     -0.2715
     84  CB       -23.7430   40.4220   24.2360 C.3   215  TRP215      0.0590
     85  CG       -22.8810   39.7130   23.2160 C.ar  215  TRP215      0.0006
     86  CD1      -23.0720   39.6930   21.8710 C.ar  215  TRP215      0.0946
     87  CD2      -21.7220   38.9350   23.4740 C.ar  215  TRP215      0.0152
     88  NE1      -22.0810   38.9420   21.2570 N.ar  215  TRP215     -0.2442
     89  CE2      -21.2410   38.4690   22.2370 C.ar  215  TRP215      0.0810
     90  CE3      -21.0250   38.5880   24.6470 C.ar  215  TRP215      0.0012
     91  CZ2      -20.1030   37.6760   22.1120 C.ar  215  TRP215      0.0191
     92  CZ3      -19.8960   37.7950   24.5300 C.ar  215  TRP215      0.0001
     93  CH2      -19.4540   37.3510   23.2670 C.ar  215  TRP215      0.0015
     94  N        -24.1480   38.4620   26.5910 N.am  216  LEU216     -0.1977
     95  CA       -23.6840   37.3190   27.3710 C.3   216  LEU216      0.1596
     96  C        -24.7940   36.3080   27.6310 C.2   216  LEU216      0.2287
     97  O        -24.4720   35.1210   27.6690 O.2   216  LEU216     -0.2864
     98  CB       -23.0630   37.8150   28.6820 C.3   216  LEU216      0.0297
     99  CG       -21.8220   37.1260   29.2410 C.3   216  LEU216      0.0022
    100  CD1      -20.8320   36.6530   28.1980 C.3   216  LEU216      0.0001
    101  CD2      -21.1230   38.0670   30.2380 C.3   216  LEU216      0.0001
@<TRIPOS>BOND
     1    71    69   ar
     2    88    86   ar
     3    88    89   ar
     4    69    70   ar
     5    69    68    1
     6    86    85   ar
     7    91    89   ar
     8    91    93   ar
     9    89    87   ar
    10    68    65    1
    11    47    48    1
    12    85    87   ar
    13    85    84    1
    14    93    92   ar
    15    87    90   ar
    16    65    64    1
    17    65    66    1
    18    84    81    1
    19    64    54   am
    20    48    51    1
    21    48    49    1
    22     1     2    1
    23    92    90   ar
    24    81    82    1
    25    81    80    1
    26    35    34   ar
    27    35    33   ar
    28    83    82    2
    29    66    67    2
    30    66    72   am
    31    52    49   am
    32    52    53    1
    33    34    32   ar
    34    49    50    2
    35    33    31   ar
    36    82    94   am
    37    54    53    1
    38    54    55    2
    39    80    74   am
    40    59    61   ar
    41    59    57   ar
    42    75    74    2
    43    72    73    1
    44     2     3    1
    45    53    56    1
    46    74    73    1
    47    61    62   ar
    48    32    29   ar
    49    56    57    1
    50    31    29   ar
    51    31    30   ar
    52    57    58   ar
    53    29    27   ar
    54    73    76    1
    55    94    95    1
    56     4     3    2
    57    30    28   ar
    58     3     5   am
    59    45    43   ar
    60    45    46   ar
    61    62    63    1
    62    62    60   ar
    63    43    41   ar
    64    95    96    1
    65    95    98    1
    66    27    28   ar
    67    27    26    1
    68    76    77    1
    69    96    97    2
    70    46    44   ar
    71    58    60   ar
    72    41    40    1
    73    41    42   ar
    74     5     6    1
    75    26    23    1
    76    40    37    1
    77   100    99    1
    78    44    42   ar
    79    12    11    2
    80    98    99    1
    81    78    77    2
    82    77    79   am
    83    25    24    2
    84    23    24    1
    85    23    22    1
    86     6     9    1
    87     6     7    1
    88    99   101    1
    89    11    10    1
    90    11    13   am
    91    37    38    1
    92    37    36    1
    93    38    39    2
    94    10     9    1
    95    22    20   am
    96    17    16    2
    97     7    14   am
    98     7     8    2
    99    14    15    1
   100    20    21    2
   101    20    19    1
   102    16    15    1
   103    16    18   am
   104    19    18    1
