@<TRIPOS>MOLECULE
tmp/1tl2A02.pdb
 112 114 0 0 0
SMALL
GASTEIGER

@<TRIPOS>ATOM
      1  N         -5.2880   61.8550   14.4890 N.3   128  VAL128     -0.1231
      2  CA        -6.7040   61.9100   14.2110 C.3   128  VAL128      0.1692
      3  C         -7.5200   61.9980   15.4890 C.2   128  VAL128      0.2593
      4  O         -8.7440   62.0840   15.4110 O.2   128  VAL128     -0.2718
      5  CB        -7.1960   60.6990   13.3740 C.3   128  VAL128      0.0266
      6  CG1       -6.5880   60.7570   11.9720 C.3   128  VAL128      0.0020
      7  CG2       -6.8240   59.3780   14.0370 C.3   128  VAL128      0.0020
      8  N         -6.8610   62.0300   16.6460 N.am  129  GLY129     -0.1942
      9  CA        -7.5830   62.1530   17.9190 C.3   129  GLY129      0.2014
     10  C         -6.6440   62.8170   18.9210 C.2   129  GLY129      0.2640
     11  O         -5.5230   62.3220   19.1040 O.2   129  GLY129     -0.2714
     12  N         -7.0920   63.9160   19.5260 N.am  130  SER130     -0.1935
     13  CA        -6.2360   64.6850   20.4030 C.3   130  SER130      0.2055
     14  C         -6.2670   64.4140   21.8860 C.2   130  SER130      0.2644
     15  O         -5.4760   65.0540   22.6060 O.2   130  SER130     -0.2714
     16  CB        -6.5570   66.1870   20.1940 C.3   130  SER130      0.2130
     17  OG        -6.0660   66.5770   18.9200 O.3   130  SER130     -0.2179
     18  N         -7.2230   63.6750   22.4000 N.am  131  GLY131     -0.1939
     19  CA        -7.3090   63.4150   23.8370 C.3   131  GLY131      0.2014
     20  C         -8.4160   62.3870   24.0590 C.2   131  GLY131      0.2639
     21  O         -9.2080   62.1400   23.1500 O.2   131  GLY131     -0.2714
     22  N         -8.3930   61.7290   25.2110 N.am  132  GLY132     -0.1939
     23  CA        -9.4200   60.7860   25.5850 C.3   132  GLY132      0.2014
     24  C         -9.1000   59.3370   25.2480 C.2   132  GLY132      0.2638
     25  O         -9.7290   58.4460   25.8210 O.2   132  GLY132     -0.2714
     26  N         -8.1050   59.0560   24.4080 N.am  133  TRP133     -0.1973
     27  CA        -7.8810   57.7040   23.9170 C.3   133  TRP133      0.1640
     28  C         -7.1580   56.7700   24.8490 C.2   133  TRP133      0.2290
     29  O         -7.3170   55.5530   24.6620 O.2   133  TRP133     -0.2864
     30  CB        -7.1560   57.7590   22.5430 C.3   133  TRP133      0.0576
     31  CG        -8.0440   58.5330   21.5930 C.ar  133  TRP133      0.0006
     32  CD1       -8.0060   59.8740   21.3330 C.ar  133  TRP133      0.0946
     33  CD2       -9.1540   57.9990   20.8600 C.ar  133  TRP133      0.0152
     34  NE1       -9.0120   60.2070   20.4460 N.ar  133  TRP133     -0.2442
     35  CE2       -9.7180   59.0700   20.1290 C.ar  133  TRP133      0.0810
     36  CE3       -9.6910   56.7150   20.7190 C.ar  133  TRP133      0.0012
     37  CZ2      -10.8350   58.9070   19.3180 C.ar  133  TRP133      0.0191
     38  CZ3      -10.7960   56.5470   19.8940 C.ar  133  TRP133      0.0001
     39  CH2      -11.3620   57.6410   19.2090 C.ar  133  TRP133      0.0015
     40  N         -9.8390   54.1010   27.1540 N.3   136  PHE136     -0.1241
     41  CA       -10.4960   52.8860   26.6890 C.3   136  PHE136      0.1605
     42  C         -9.8160   51.6180   27.1840 C.2   136  PHE136      0.2264
     43  O         -8.5850   51.5790   27.2650 O.2   136  PHE136     -0.2867
     44  CB       -10.3790   52.8600   25.1290 C.3   136  PHE136      0.0534
     45  CG       -11.2670   53.9550   24.6080 C.ar  136  PHE136     -0.0203
     46  CD1      -12.6410   53.7770   24.5520 C.ar  136  PHE136     -0.0042
     47  CD2      -10.7290   55.1670   24.2090 C.ar  136  PHE136     -0.0042
     48  CE1      -13.4610   54.7830   24.0770 C.ar  136  PHE136     -0.0003
     49  CE2      -11.5460   56.1760   23.7250 C.ar  136  PHE136     -0.0003
     50  CZ       -12.9090   55.9780   23.6550 C.ar  136  PHE136     -0.0000
     51  N        -12.7640   58.4750   13.6170 N.3   161  PRO161     -0.2116
     52  CA       -12.6770   59.9200   13.5210 C.3   161  PRO161      0.1372
     53  C        -12.0620   60.3180   12.1910 C.2   161  PRO161      0.2244
     54  O        -11.1410   59.6570   11.7260 O.2   161  PRO161     -0.2868
     55  CB       -11.7790   60.3720   14.6580 C.3   161  PRO161      0.0268
     56  CG       -11.2020   59.1340   15.2460 C.3   161  PRO161      0.0207
     57  CD       -12.0340   57.9660   14.8070 C.3   161  PRO161      0.0892
     58  N         -8.7150   65.2370   13.9450 N.3   164  ASN164     -0.1225
     59  CA        -8.7080   65.5180   15.3790 C.3   164  ASN164      0.1785
     60  C         -9.7420   66.5390   15.8240 C.2   164  ASN164      0.2600
     61  O         -9.8110   66.7960   17.0270 O.2   164  ASN164     -0.2717
     62  CB        -7.3150   65.8990   15.8730 C.3   164  ASN164      0.1169
     63  CG        -6.8050   67.1800   15.2170 C.2   164  ASN164      0.2627
     64  OD1       -7.5890   67.9750   14.7010 O.2   164  ASN164     -0.2716
     65  ND2       -5.4940   67.3680   15.2510 N.am  164  ASN164     -0.0877
     66  N        -10.5690   67.1060   14.9640 N.am  165  GLN165     -0.1920
     67  CA       -11.6360   68.0240   15.3280 C.3   165  GLN165      0.1949
     68  C        -12.9310   67.2100   15.4890 C.2   165  GLN165      0.2659
     69  O        -13.9880   67.7290   15.8350 O.2   165  GLN165     -0.2711
     70  CB       -11.8990   69.0800   14.2450 C.2   165  GLN165      0.0091
     71  CG       -10.7070   69.9260   13.8500 C.2   165  GLN165      0.0587
     72  CD       -10.8900   70.8280   12.6470 C.2   165  GLN165      0.2841
     73  OE1      -11.7220   70.6260   11.7480 O.2   165  GLN165     -0.2667
     74  NE2      -10.0550   71.8720   12.5670 N.am  165  GLN165     -0.0837
     75  N        -12.8650   65.9220   15.1510 N.am  166  ASP166     -0.1955
     76  CA       -14.0230   65.0320   15.2170 C.3   166  ASP166      0.1840
     77  C        -14.1520   64.4360   16.6090 C.2   166  ASP166      0.2622
     78  O        -13.2770   63.6750   17.0380 O.2   166  ASP166     -0.2715
     79  CB       -13.8760   63.9770   14.1160 C.3   166  ASP166      0.1450
     80  CG       -15.0510   63.0540   13.9140 C.2   166  ASP166      0.3671
     81  OD1      -16.0390   63.0900   14.6740 O.co2 166  ASP166     -0.2456
     82  OD2      -15.0370   62.2070   12.9890 O.co2 166  ASP166     -0.2456
     83  N        -15.1990   64.7570   17.3560 N.am  167  ASN167     -0.1958
     84  CA       -15.3840   64.2030   18.7040 C.3   167  ASN167      0.1819
     85  C        -16.0850   62.8500   18.5890 C.2   167  ASN167      0.2621
     86  O        -17.3070   62.7800   18.4650 O.2   167  ASN167     -0.2715
     87  CB       -16.1670   65.1710   19.5920 C.3   167  ASN167      0.1195
     88  CG       -16.2960   64.6950   21.0230 C.2   167  ASN167      0.2630
     89  OD1      -16.2510   63.4960   21.3220 O.2   167  ASN167     -0.2716
     90  ND2      -16.4870   65.6350   21.9600 N.am  167  ASN167     -0.0877
     91  N        -15.3010   61.7810   18.6100 N.am  168  TRP168     -0.1960
     92  CA       -15.7870   60.4250   18.3570 C.3   168  TRP168      0.1771
     93  C        -16.7530   59.8820   19.3910 C.2   168  TRP168      0.2619
     94  O        -17.8610   59.4040   19.0960 O.2   168  TRP168     -0.2715
     95  CB       -14.5530   59.4940   18.2270 C.3   168  TRP168      0.0590
     96  CG       -14.9390   58.1230   17.7530 C.ar  168  TRP168      0.0006
     97  CD1      -15.1520   57.7320   16.4630 C.ar  168  TRP168      0.0946
     98  CD2      -15.2220   56.9760   18.5710 C.ar  168  TRP168      0.0152
     99  NE1      -15.5110   56.4070   16.4190 N.ar  168  TRP168     -0.2442
    100  CE2      -15.5730   55.9250   17.7070 C.ar  168  TRP168      0.0810
    101  CE3      -15.2320   56.7580   19.9510 C.ar  168  TRP168      0.0012
    102  CZ2      -15.9510   54.6730   18.1740 C.ar  168  TRP168      0.0191
    103  CZ3      -15.5710   55.4940   20.4200 C.ar  168  TRP168      0.0001
    104  CH2      -15.9120   54.4590   19.5270 C.ar  168  TRP168      0.0015
    105  N        -16.3520   59.9650   20.6560 N.am  169  LEU169     -0.1977
    106  CA       -17.1590   59.4070   21.7380 C.3   169  LEU169      0.1596
    107  C        -18.5160   60.0800   21.8250 C.2   169  LEU169      0.2287
    108  O        -19.5170   59.4120   22.0860 O.2   169  LEU169     -0.2864
    109  CB       -16.4040   59.4760   23.0620 C.3   169  LEU169      0.0297
    110  CG       -16.8510   58.5330   24.1820 C.3   169  LEU169      0.0022
    111  CD1      -17.0880   57.1150   23.7130 C.3   169  LEU169      0.0001
    112  CD2      -15.7950   58.5280   25.2870 C.3   169  LEU169      0.0001
@<TRIPOS>BOND
     1    54    53    2
     2    73    72    2
     3     6     5    1
     4    53    52    1
     5    74    72   am
     6    72    71    1
     7    82    80   ar
     8     5     7    1
     9     5     2    1
    10    52    51    1
    11    52    55    1
    12    51    57    1
    13    71    70    2
    14    80    79    1
    15    80    81   ar
    16    58    59    1
    17    79    76    1
    18     2     1    1
    19     2     3    1
    20    70    67    1
    21    55    56    1
    22    64    63    2
    23    57    56    1
    24    66    67    1
    25    66    60   am
    26    75    76    1
    27    75    68   am
    28    63    65   am
    29    63    62    1
    30    76    77    1
    31    67    68    1
    32    59    60    1
    33    59    62    1
    34     4     3    2
    35    68    69    2
    36     3     8   am
    37    60    61    2
    38    99    97   ar
    39    99   100   ar
    40    97    96   ar
    41    77    78    2
    42    77    83   am
    43     8     9    1
    44    83    84    1
    45   100   102   ar
    46   100    98   ar
    47    96    95    1
    48    96    98   ar
    49     9    10    1
    50   102   104   ar
    51    95    92    1
    52    92    91    1
    53    92    93    1
    54    86    85    2
    55    98   101   ar
    56    85    91   am
    57    85    84    1
    58    84    87    1
    59    17    16    1
    60    10    11    2
    61    10    12   am
    62    94    93    2
    63    39    37   ar
    64    39    38   ar
    65    37    35   ar
    66    93   105   am
    67    12    13    1
    68   104   103   ar
    69    87    88    1
    70    38    36   ar
    71   101   103   ar
    72    35    34   ar
    73    35    33   ar
    74    16    13    1
    75    13    14    1
    76    34    32   ar
    77   105   106    1
    78    36    33   ar
    79    33    31   ar
    80    88    89    2
    81    88    90   am
    82    32    31   ar
    83    31    30    1
    84   106   107    1
    85   106   109    1
    86   107   108    2
    87    14    18   am
    88    14    15    2
    89    18    19    1
    90    30    27    1
    91   109   110    1
    92    21    20    2
    93    50    49   ar
    94    50    48   ar
    95   111   110    1
    96    49    47   ar
    97    19    20    1
    98    27    26    1
    99    27    28    1
   100    20    22   am
   101    48    46   ar
   102   110   112    1
   103    47    45   ar
   104    26    24   am
   105    46    45   ar
   106    45    44    1
   107    29    28    2
   108    44    41    1
   109    22    23    1
   110    24    23    1
   111    24    25    2
   112    41    40    1
   113    41    42    1
   114    42    43    2
