@<TRIPOS>MOLECULE
tmp/1tl3A00.pdb
 159 158 0 0 0
SMALL
GASTEIGER

@<TRIPOS>ATOM
      1  N          9.0310  -31.6080   23.1130 N.3    86  PRO86      -0.2116
      2  CA         8.5070  -31.4860   21.7590 C.3    86  PRO86       0.1372
      3  C          7.4530  -30.3910   21.7360 C.2    86  PRO86       0.2244
      4  O          6.7970  -30.1300   22.7360 O.2    86  PRO86      -0.2868
      5  CB         7.9180  -32.8640   21.5020 C.3    86  PRO86       0.0268
      6  CG         7.4700  -33.2780   22.8550 C.3    86  PRO86       0.0207
      7  CD         8.6410  -32.9010   23.6970 C.3    86  PRO86       0.0892
      8  N          4.4060  -32.7090   16.0630 N.3    91  LEU91      -0.1231
      9  CA         3.7140  -33.9960   16.0530 C.3    91  LEU91       0.1693
     10  C          2.8430  -34.2110   14.8250 C.2    91  LEU91       0.2591
     11  O          2.4030  -33.2610   14.1650 O.2    91  LEU91      -0.2718
     12  CB         2.7880  -34.1180   17.2550 C.3    91  LEU91       0.0284
     13  CG         3.1150  -33.4140   18.5720 C.3    91  LEU91       0.0019
     14  CD1        1.8610  -33.3730   19.4320 C.3    91  LEU91       0.0001
     15  CD2        4.2480  -34.1190   19.2960 C.3    91  LEU91       0.0001
     16  N          2.5740  -35.4800   14.5490 N.am   92  LYS92      -0.1980
     17  CA         1.7240  -35.8590   13.4400 C.3    92  LYS92       0.1596
     18  C          0.4230  -36.2510   14.1380 C.2    92  LYS92       0.2287
     19  O          0.4460  -36.6940   15.2920 O.2    92  LYS92      -0.2864
     20  CB         2.3210  -37.0530   12.7060 C.3    92  LYS92       0.0298
     21  CG         3.7660  -36.8670   12.2830 C.3    92  LYS92       0.0038
     22  CD         4.7030  -36.8000   13.4910 C.3    92  LYS92       0.0206
     23  CE         6.1420  -36.4410   13.0980 C.3    92  LYS92       0.1093
     24  NZ         7.0170  -36.2040   14.2920 N.3    92  LYS92      -0.1314
     25  N         -2.6750  -38.3410   15.4350 N.3    94  LYS94      -0.1245
     26  CA        -2.8000  -39.7500   15.7680 C.3    94  LYS94       0.1561
     27  C         -4.2790  -40.0570   16.0280 C.2    94  LYS94       0.2260
     28  O         -5.0140  -39.1930   16.5200 O.2    94  LYS94      -0.2867
     29  CB        -1.9240  -40.0580   16.9790 C.3    94  LYS94       0.0271
     30  CG        -0.4460  -39.9230   16.6510 C.3    94  LYS94       0.0035
     31  CD         0.0710  -41.1910   15.9740 C.3    94  LYS94       0.0206
     32  CE         1.2230  -40.9210   15.0020 C.3    94  LYS94       0.1093
     33  NZ         0.7450  -40.5490   13.6200 N.3    94  LYS94      -0.1314
     34  N         -4.6210  -41.9270   21.3860 N.3    97  VAL97      -0.1245
     35  CA        -3.4600  -41.6370   22.2060 C.3    97  VAL97       0.1561
     36  C         -3.8410  -41.9010   23.6510 C.2    97  VAL97       0.2260
     37  O         -4.8040  -41.3230   24.1610 O.2    97  VAL97      -0.2867
     38  CB        -3.0560  -40.1630   22.0700 C.3    97  VAL97       0.0252
     39  CG1       -1.9330  -39.8370   23.0270 C.3    97  VAL97       0.0019
     40  CG2       -2.6400  -39.8790   20.6440 C.3    97  VAL97       0.0019
     41  N          3.8460  -45.0260   18.2060 N.3   170  VAL170     -0.1231
     42  CA         4.9300  -44.2430   18.7480 C.3   170  VAL170      0.1692
     43  C          4.6830  -44.0500   20.2220 C.2   170  VAL170      0.2592
     44  O          3.5410  -44.0690   20.6850 O.2   170  VAL170     -0.2718
     45  CB         5.0310  -42.8870   18.0630 C.3   170  VAL170      0.0266
     46  CG1        4.9830  -43.0830   16.5710 C.3   170  VAL170      0.0020
     47  CG2        3.9110  -41.9790   18.5210 C.3   170  VAL170      0.0020
     48  N          5.7660  -43.8780   20.9580 N.am  171  ILE171     -0.1966
     49  CA         5.6730  -43.6890   22.3880 C.3   171  ILE171      0.1727
     50  C          6.5780  -42.5800   22.8500 C.2   171  ILE171      0.2616
     51  O          7.7420  -42.4810   22.4340 O.2   171  ILE171     -0.2715
     52  CB         6.0960  -44.9350   23.1460 C.3   171  ILE171      0.0290
     53  CG1        5.2500  -46.1130   22.6860 C.3   171  ILE171      0.0022
     54  CG2        5.9600  -44.7090   24.6600 C.3   171  ILE171      0.0023
     55  CD1        5.7610  -47.4100   23.2110 C.3   171  ILE171      0.0001
     56  N          6.0430  -41.7580   23.7380 N.am  172  TYR172     -0.1974
     57  CA         6.8060  -40.6610   24.2660 C.3   172  TYR172      0.1639
     58  C          6.9000  -40.7760   25.7840 C.2   172  TYR172      0.2290
     59  O          5.8770  -40.8540   26.4890 O.2   172  TYR172     -0.2864
     60  CB         6.1560  -39.3440   23.8440 C.3   172  TYR172      0.0560
     61  CG         6.7950  -38.1250   24.4610 C.ar  172  TYR172     -0.0198
     62  CD1        6.2040  -37.4800   25.5530 C.ar  172  TYR172     -0.0009
     63  CD2        8.0140  -37.6460   23.9840 C.ar  172  TYR172     -0.0009
     64  CE1        6.8090  -36.3910   26.1620 C.ar  172  TYR172      0.0417
     65  CE2        8.6340  -36.5540   24.5840 C.ar  172  TYR172      0.0417
     66  CZ         8.0260  -35.9330   25.6760 C.ar  172  TYR172      0.1957
     67  OH         8.6530  -34.8680   26.2850 O.3   172  TYR172     -0.2866
     68  N          3.2260  -41.8290   26.7470 N.3   179  TYR179     -0.1227
     69  CA         2.1750  -41.6220   25.7820 C.3   179  TYR179      0.1736
     70  C          2.2560  -42.5370   24.5960 C.2   179  TYR179      0.2595
     71  O          3.3010  -42.6650   23.9560 O.2   179  TYR179     -0.2718
     72  CB         2.1750  -40.1850   25.3170 C.3   179  TYR179      0.0548
     73  CG         1.9260  -39.2150   26.4430 C.ar  179  TYR179     -0.0200
     74  CD1        2.8980  -38.9740   27.4110 C.ar  179  TYR179     -0.0009
     75  CD2        0.7200  -38.5190   26.5320 C.ar  179  TYR179     -0.0009
     76  CE1        2.6780  -38.0530   28.4410 C.ar  179  TYR179      0.0417
     77  CE2        0.4870  -37.5940   27.5580 C.ar  179  TYR179      0.0417
     78  CZ         1.4690  -37.3620   28.5080 C.ar  179  TYR179      0.1957
     79  OH         1.2550  -36.4210   29.5090 O.3   179  TYR179     -0.2866
     80  N          1.1310  -43.1690   24.2960 N.am  180  VAL180     -0.1966
     81  CA         1.0860  -44.0850   23.1850 C.3   180  VAL180      0.1727
     82  C          0.0770  -43.6620   22.1350 C.2   180  VAL180      0.2616
     83  O         -1.1190  -43.5210   22.4070 O.2   180  VAL180     -0.2715
     84  CB         0.7370  -45.4380   23.6770 C.3   180  VAL180      0.0290
     85  CG1        1.2110  -46.4650   22.6810 C.3   180  VAL180      0.0023
     86  CG2        1.3310  -45.6260   25.0500 C.3   180  VAL180      0.0023
     87  N          0.5620  -43.4600   20.9240 N.am  181  GLY181     -0.1955
     88  CA        -0.3320  -43.0370   19.8820 C.3   181  GLY181      0.1869
     89  C         -0.1980  -43.9480   18.7020 C.2   181  GLY181      0.2309
     90  O          0.8280  -44.6000   18.5000 O.2   181  GLY181     -0.2863
     91  N         -7.2900  -37.9410   25.7250 N.3   216  PRO216     -0.2116
     92  CA        -7.3140  -36.5390   25.2870 C.3   216  PRO216      0.1372
     93  C         -8.5790  -35.8180   25.7500 C.2   216  PRO216      0.2244
     94  O         -9.5480  -36.4470   26.1530 O.2   216  PRO216     -0.2868
     95  CB        -7.2540  -36.6540   23.7650 C.3   216  PRO216      0.0268
     96  CG        -6.4020  -37.8750   23.5670 C.3   216  PRO216      0.0207
     97  CD        -6.9500  -38.8380   24.6020 C.3   216  PRO216      0.0892
     98  N         -5.2400  -33.0770   26.0850 N.3   218  PHE218     -0.1241
     99  CA        -4.1790  -33.0730   27.0670 C.3   218  PHE218      0.1605
    100  C         -3.7140  -31.6640   27.3960 C.2   218  PHE218      0.2264
    101  O         -3.1690  -30.9650   26.5350 O.2   218  PHE218     -0.2867
    102  CB        -3.0130  -33.8940   26.5450 C.3   218  PHE218      0.0534
    103  CG        -3.2830  -35.3760   26.4880 C.ar  218  PHE218     -0.0203
    104  CD1       -3.4090  -36.1270   27.6620 C.ar  218  PHE218     -0.0042
    105  CD2       -3.3370  -36.0390   25.2630 C.ar  218  PHE218     -0.0042
    106  CE1       -3.5760  -37.5370   27.6140 C.ar  218  PHE218     -0.0003
    107  CE2       -3.5020  -37.4380   25.1970 C.ar  218  PHE218     -0.0003
    108  CZ        -3.6190  -38.1880   26.3740 C.ar  218  PHE218     -0.0000
    109  N         -1.2290  -30.2420   28.5820 N.3   220  TRP220     -0.1241
    110  CA         0.1780  -30.4520   28.7990 C.3   220  TRP220      0.1605
    111  C          0.9640  -29.1580   28.6750 C.2   220  TRP220      0.2264
    112  O          1.1310  -28.6200   27.5680 O.2   220  TRP220     -0.2867
    113  CB         0.6530  -31.4690   27.7760 C.3   220  TRP220      0.0550
    114  CG         2.0910  -31.7730   27.8270 C.ar  220  TRP220      0.0003
    115  CD1        2.7580  -32.4660   28.8000 C.ar  220  TRP220      0.0946
    116  CD2        3.0540  -31.4470   26.8270 C.ar  220  TRP220      0.0152
    117  NE1        4.0880  -32.5990   28.4600 N.ar  220  TRP220     -0.2442
    118  CE2        4.2960  -31.9820   27.2530 C.ar  220  TRP220      0.0810
    119  CE3        2.9910  -30.7550   25.6060 C.ar  220  TRP220      0.0012
    120  CZ2        5.4700  -31.8470   26.4960 C.ar  220  TRP220      0.0191
    121  CZ3        4.1600  -30.6210   24.8510 C.ar  220  TRP220      0.0001
    122  CH2        5.3840  -31.1670   25.3010 C.ar  220  TRP220      0.0015
    123  N         -4.2000  -30.5530   24.0730 N.3   225  LEU225     -0.1231
    124  CA        -3.9650  -31.4780   22.9710 C.3   225  LEU225      0.1693
    125  C         -5.0590  -32.4280   22.5240 C.2   225  LEU225      0.2592
    126  O         -5.4080  -33.3760   23.2200 O.2   225  LEU225     -0.2718
    127  CB        -2.7060  -32.2700   23.2820 C.3   225  LEU225      0.0284
    128  CG        -1.5810  -31.2570   23.4610 C.3   225  LEU225      0.0019
    129  CD1       -0.3840  -31.9060   24.1220 C.3   225  LEU225      0.0001
    130  CD2       -1.2400  -30.6540   22.0920 C.3   225  LEU225      0.0001
    131  N         -5.5770  -32.1670   21.3320 N.am  226  HIS226     -0.1962
    132  CA        -6.6080  -32.9970   20.7370 C.3   226  HIS226      0.1772
    133  C         -5.9000  -33.9190   19.7670 C.2   226  HIS226      0.2462
    134  O         -4.7910  -33.6330   19.3250 O.2   226  HIS226     -0.2730
    135  CB        -7.6120  -32.1430   19.9690 C.3   226  HIS226      0.0785
    136  CG        -8.6040  -31.4380   20.8380 C.ar  226  HIS226      0.0821
    137  ND1       -9.6580  -32.0890   21.4420 N.ar  226  HIS226     -0.2267
    138  CD2       -8.7070  -30.1370   21.2000 C.ar  226  HIS226      0.1154
    139  CE1      -10.3690  -31.2190   22.1370 C.ar  226  HIS226      0.1986
    140  NE2       -9.8110  -30.0280   22.0070 N.ar  226  HIS226     -0.2212
    141  N         -6.5350  -35.0400   19.4160 N.am  227  PRO227     -0.2727
    142  CA        -5.9480  -36.0060   18.4890 C.3   227  PRO227      0.1402
    143  C         -5.6250  -35.4200   17.1250 C.2   227  PRO227      0.2269
    144  O         -4.5860  -35.7190   16.5410 O.2   227  PRO227     -0.2865
    145  CB        -7.0210  -37.0850   18.4040 C.3   227  PRO227      0.0296
    146  CG        -7.6260  -37.0490   19.7700 C.3   227  PRO227      0.0237
    147  CD        -7.7860  -35.5640   19.9860 C.3   227  PRO227      0.0939
    148  N         -1.4980  -30.5220   13.0770 N.3   308  TYR308     -0.1241
    149  CA        -0.2710  -31.2850   13.3100 C.3   308  TYR308      0.1605
    150  C          0.5740  -31.3990   12.0450 C.2   308  TYR308      0.2264
    151  O          0.1460  -31.0240   10.9420 O.2   308  TYR308     -0.2867
    152  CB        -0.5840  -32.6740   13.8530 C.3   308  TYR308      0.0534
    153  CG        -1.1330  -32.6330   15.2640 C.ar  308  TYR308     -0.0201
    154  CD1       -0.4190  -32.0050   16.2860 C.ar  308  TYR308     -0.0009
    155  CD2       -2.3850  -33.1840   15.5720 C.ar  308  TYR308     -0.0009
    156  CE1       -0.9320  -31.9160   17.5780 C.ar  308  TYR308      0.0417
    157  CE2       -2.9130  -33.1020   16.8660 C.ar  308  TYR308      0.0417
    158  CZ        -2.1790  -32.4620   17.8700 C.ar  308  TYR308      0.1957
    159  OH        -2.6810  -32.3580   19.1600 O.3   308  TYR308     -0.2866
@<TRIPOS>BOND
     1   151   150    2
     2   150   149    1
     3    21    20    1
     4    21    22    1
     5    20    17    1
     6   148   149    1
     7    23    22    1
     8    23    24    1
     9   149   152    1
    10    17    18    1
    11    17    16    1
    12    33    32    1
    13   152   153    1
    14    18    19    2
    15    11    10    2
    16    16    10   am
    17    10     9    1
    18    32    31    1
    19   153   155   ar
    20   153   154   ar
    21    25    26    1
    22   155   157   ar
    23    26    27    1
    24    26    29    1
    25    31    30    1
    26    27    28    2
    27     9     8    1
    28     9    12    1
    29   154   156   ar
    30   144   143    2
    31    46    45    1
    32    30    29    1
    33   157   158   ar
    34   143   142    1
    35    12    13    1
    36   156   158   ar
    37   158   159    1
    38    45    47    1
    39    45    42    1
    40    41    42    1
    41   145   142    1
    42   145   146    1
    43   142   141    1
    44    90    89    2
    45    13    15    1
    46    13    14    1
    47    89    88    1
    48    42    43    1
    49   134   133    2
    50   141   133   am
    51   141   147    1
    52   133   132    1
    53   146   147    1
    54    88    87    1
    55   135   132    1
    56   135   136    1
    57    43    44    2
    58    43    48   am
    59    40    38    1
    60   132   131    1
    61   136   138   ar
    62   136   137   ar
    63    87    82   am
    64    48    49    1
    65   138   140   ar
    66   131   125   am
    67    34    35    1
    68   137   139   ar
    69     5     2    1
    70     5     6    1
    71     3     2    1
    72     3     4    2
    73     2     1    1
    74   140   139   ar
    75    38    35    1
    76    38    39    1
    77   130   128    1
    78    82    83    2
    79    82    81    1
    80    35    36    1
    81    49    50    1
    82    49    52    1
    83    51    50    2
    84   125   124    1
    85   125   126    2
    86    85    84    1
    87    53    52    1
    88    53    55    1
    89    50    56   am
    90     6     7    1
    91   124   127    1
    92   124   123    1
    93     1     7    1
    94    52    54    1
    95    81    84    1
    96    81    80    1
    97   127   128    1
    98   128   129    1
    99    96    95    1
   100    96    97    1
   101    36    37    2
   102    84    86    1
   103    56    57    1
   104    95    92    1
   105    60    57    1
   106    60    61    1
   107    71    70    2
   108    63    61   ar
   109    63    65   ar
   110    57    58    1
   111    80    70   am
   112    61    62   ar
   113    65    66   ar
   114    70    69    1
   115    97    91    1
   116   121   122   ar
   117   121   119   ar
   118   107   105   ar
   119   107   108   ar
   120   105   103   ar
   121    92    91    1
   122    92    93    1
   123   122   120   ar
   124    72    69    1
   125    72    73    1
   126    62    64   ar
   127   119   116   ar
   128    66    64   ar
   129    66    67    1
   130    93    94    2
   131    69    68    1
   132    58    59    2
   133    98    99    1
   134   108   106   ar
   135    73    75   ar
   136    73    74   ar
   137   103   102    1
   138   103   104   ar
   139   120   118   ar
   140    75    77   ar
   141   101   100    2
   142   102    99    1
   143   116   118   ar
   144   116   114   ar
   145    99   100    1
   146   118   117   ar
   147    74    76   ar
   148    77    78   ar
   149   112   111    2
   150   106   104   ar
   151   113   114    1
   152   113   110    1
   153   114   115   ar
   154    76    78   ar
   155   117   115   ar
   156    78    79    1
   157   109   110    1
   158   111   110    1
