@<TRIPOS>MOLECULE
tmp/1tl7B00.pdb
 127 121 0 0 0
SMALL
GASTEIGER

@<TRIPOS>ATOM
      1  N         56.8250  -15.3900   41.0050 N.3    11  PHE11      -0.1241
      2  CA        55.6280  -14.8170   41.5950 C.3    11  PHE11       0.1605
      3  C         54.9610  -14.0070   40.4960 C.2    11  PHE11       0.2264
      4  O         55.6160  -13.2060   39.8230 O.2    11  PHE11      -0.2867
      5  CB        55.9810  -13.8670   42.7320 C.3    11  PHE11       0.0534
      6  CG        56.2260  -14.5390   44.0370 C.ar   11  PHE11      -0.0203
      7  CD1       57.4240  -15.1960   44.2820 C.ar   11  PHE11      -0.0042
      8  CD2       55.2610  -14.4880   45.0420 C.ar   11  PHE11      -0.0042
      9  CE1       57.6630  -15.7920   45.5140 C.ar   11  PHE11      -0.0003
     10  CE2       55.4840  -15.0790   46.2810 C.ar   11  PHE11      -0.0003
     11  CZ        56.6900  -15.7340   46.5220 C.ar   11  PHE11      -0.0000
     12  N         51.5200  -22.5150   45.5590 N.3    60  LYS60      -0.1245
     13  CA        50.3540  -22.0300   46.2810 C.3    60  LYS60       0.1561
     14  C         49.8810  -20.7590   45.5980 C.2    60  LYS60       0.2260
     15  O         50.5760  -20.2200   44.7400 O.2    60  LYS60      -0.2867
     16  CB        50.7580  -21.6870   47.7160 C.3    60  LYS60       0.0271
     17  CG        51.6370  -20.4370   47.8000 C.3    60  LYS60       0.0035
     18  CD        52.6420  -20.4780   48.9410 C.3    60  LYS60       0.0206
     19  CE        51.9800  -20.6670   50.2900 C.3    60  LYS60       0.1093
     20  NZ        50.9540  -19.6310   50.5360 N.3    60  LYS60      -0.1314
     21  N         48.3940  -16.9700   46.6550 N.3    62  ILE62      -0.1245
     22  CA        48.1240  -16.0240   47.7280 C.3    62  ILE62       0.1561
     23  C         47.3720  -14.8550   47.1020 C.2    62  ILE62       0.2260
     24  O         47.8750  -14.1950   46.1930 O.2    62  ILE62      -0.2867
     25  CB        49.4340  -15.5180   48.4030 C.3    62  ILE62       0.0252
     26  CG1       50.6450  -16.2770   47.8610 C.3    62  ILE62       0.0019
     27  CG2       49.3630  -15.7370   49.8990 C.3    62  ILE62       0.0019
     28  CD1       51.1090  -15.7860   46.5030 C.3    62  ILE62       0.0001
     29  N         52.0090  -18.5050   42.6380 N.3    67  MET67      -0.1245
     30  CA        53.3800  -18.8110   43.0560 C.3    67  MET67       0.1570
     31  C         53.8730  -20.2020   42.6620 C.2    67  MET67       0.2261
     32  O         53.5660  -21.1890   43.3370 O.2    67  MET67      -0.2867
     33  CB        53.5230  -18.6780   44.5680 C.3    67  MET67       0.0387
     34  CG        54.9540  -18.8430   45.0300 C.3    67  MET67       0.0595
     35  SD        55.1260  -19.0610   46.8030 S.3    67  MET67      -0.1393
     36  CE        56.2830  -20.4190   46.8710 C.3    67  MET67       0.0692
     37  N         64.8440  -23.8120   50.7130 N.3   118  ILE118     -0.1245
     38  CA        64.5640  -24.9020   51.6440 C.3   118  ILE118      0.1561
     39  C         63.1170  -25.3690   51.4370 C.2   118  ILE118      0.2260
     40  O         62.1600  -24.7040   51.8530 O.2   118  ILE118     -0.2867
     41  CB        64.7680  -24.4720   53.1290 C.3   118  ILE118      0.0252
     42  CG1       66.2600  -24.4260   53.4720 C.3   118  ILE118      0.0019
     43  CG2       64.0820  -25.4540   54.0650 C.3   118  ILE118      0.0019
     44  CD1       67.0190  -23.3210   52.7910 C.3   118  ILE118      0.0001
     45  N         55.6680  -26.0590   50.9600 N.3   130  ASP130     -0.1225
     46  CA        56.1320  -24.7030   50.6680 C.3   130  ASP130      0.1805
     47  C         57.6590  -24.6460   50.7120 C.2   130  ASP130      0.2598
     48  O         58.2900  -25.4150   51.4370 O.2   130  ASP130     -0.2718
     49  CB        55.5720  -23.7290   51.7070 C.3   130  ASP130      0.1424
     50  CG        55.5380  -22.3040   51.2090 C.2   130  ASP130      0.3668
     51  OD1       56.3350  -21.9850   50.2990 O.co2 130  ASP130     -0.2456
     52  OD2       54.7190  -21.5130   51.7360 O.co2 130  ASP130     -0.2456
     53  N         58.2500  -23.7340   49.9440 N.am  131  ILE131     -0.1966
     54  CA        59.7000  -23.5870   49.9310 C.3   131  ILE131      0.1727
     55  C         60.0810  -22.2800   50.6010 C.2   131  ILE131      0.2616
     56  O         59.3510  -21.2940   50.5140 O.2   131  ILE131     -0.2715
     57  CB        60.2640  -23.6020   48.4990 C.3   131  ILE131      0.0290
     58  CG1       59.4290  -22.6940   47.5960 C.3   131  ILE131      0.0022
     59  CG2       60.2790  -25.0200   47.9650 C.3   131  ILE131      0.0023
     60  CD1       59.9590  -22.5900   46.1780 C.3   131  ILE131      0.0001
     61  N         61.2260  -22.2770   51.2750 N.am  132  TRP132     -0.1960
     62  CA        61.6970  -21.0890   51.9780 C.3   132  TRP132      0.1771
     63  C         63.0660  -20.6110   51.5330 C.2   132  TRP132      0.2620
     64  O         63.7580  -21.2840   50.7680 O.2   132  TRP132     -0.2715
     65  CB        61.7420  -21.3550   53.4780 C.3   132  TRP132      0.0590
     66  CG        60.4040  -21.4760   54.0560 C.ar  132  TRP132      0.0006
     67  CD1       59.5760  -20.4600   54.4200 C.ar  132  TRP132      0.0946
     68  CD2       59.6830  -22.6840   54.2750 C.ar  132  TRP132      0.0152
     69  NE1       58.3750  -20.9610   54.8520 N.ar  132  TRP132     -0.2442
     70  CE2       58.4130  -22.3280   54.7730 C.ar  132  TRP132      0.0810
     71  CE3       59.9840  -24.0380   54.0940 C.ar  132  TRP132      0.0012
     72  CZ2       57.4400  -23.2790   55.0950 C.ar  132  TRP132      0.0191
     73  CZ3       59.0150  -24.9860   54.4140 C.ar  132  TRP132      0.0001
     74  CH2       57.7580  -24.5990   54.9090 C.ar  132  TRP132      0.0015
     75  N         63.4480  -19.4390   52.0320 N.am  133  GLY133     -0.1940
     76  CA        64.7390  -18.8760   51.7010 C.3   133  GLY133      0.2014
     77  C         64.7020  -17.4360   51.2320 C.2   133  GLY133      0.2638
     78  O         63.6420  -16.8720   50.9470 O.2   133  GLY133     -0.2714
     79  N         65.8820  -16.8340   51.1780 N.am  134  ASN134     -0.1972
     80  CA        66.0240  -15.4680   50.7130 C.3   134  ASN134      0.1688
     81  C         65.6770  -15.5100   49.2310 C.2   134  ASN134      0.2292
     82  O         65.0190  -14.6210   48.6960 O.2   134  ASN134     -0.2864
     83  CB        67.4690  -15.0080   50.9300 C.3   134  ASN134      0.1181
     84  CG        67.8140  -13.7610   50.1430 C.2   134  ASN134      0.2629
     85  OD1       68.2920  -13.8430   49.0070 O.2   134  ASN134     -0.2716
     86  ND2       67.5640  -12.5960   50.7380 N.am  134  ASN134     -0.0877
     87  N         63.5300  -16.7960   47.8290 N.3   136  VAL136     -0.1231
     88  CA        62.0950  -16.6220   47.6760 C.3   136  VAL136      0.1692
     89  C         61.5480  -15.1960   47.7040 C.2   136  VAL136      0.2592
     90  O         61.0140  -14.7230   46.6970 O.2   136  VAL136     -0.2718
     91  CB        61.3440  -17.4540   48.7290 C.3   136  VAL136      0.0266
     92  CG1       59.8450  -17.4330   48.4380 C.3   136  VAL136      0.0020
     93  CG2       61.8680  -18.8810   48.7260 C.3   136  VAL136      0.0020
     94  N         61.6550  -14.5080   48.8390 N.am  137  ASN137     -0.1974
     95  CA        61.1100  -13.1520   48.9010 C.3   137  ASN137      0.1688
     96  C         61.7520  -12.2070   47.8950 C.2   137  ASN137      0.2292
     97  O         61.1270  -11.2310   47.4820 O.2   137  ASN137     -0.2864
     98  CB        61.2110  -12.5530   50.3110 C.3   137  ASN137      0.1181
     99  CG        62.6130  -12.5650   50.8510 C.2   137  ASN137      0.2629
    100  OD1       63.1250  -13.6080   51.2680 O.2   137  ASN137     -0.2716
    101  ND2       63.2540  -11.4010   50.8410 N.am  137  ASN137     -0.0877
    102  N         59.8660  -12.5240   45.1050 N.3   140  SER140     -0.1202
    103  CA        58.5810  -11.9710   45.5210 C.3   140  SER140      0.2020
    104  C         58.6070  -10.4540   45.3480 C.2   140  SER140      0.2618
    105  O         57.7250   -9.8620   44.7180 O.2   140  SER140     -0.2717
    106  CB        58.3180  -12.3170   46.9860 C.3   140  SER140      0.2103
    107  OG        57.2020  -11.6030   47.4830 O.3   140  SER140     -0.2182
    108  N         59.6280   -9.8310   45.9210 N.am  141  ARG141     -0.1979
    109  CA        59.7900   -8.3880   45.8230 C.3   141  ARG141      0.1597
    110  C         59.9610   -7.9540   44.3610 C.2   141  ARG141      0.2287
    111  O         59.6600   -6.8140   44.0050 O.2   141  ARG141     -0.2864
    112  CB        60.9970   -7.9450   46.6560 C.3   141  ARG141      0.0334
    113  CG        60.7530   -7.9560   48.1530 C.3   141  ARG141      0.0492
    114  CD        59.9280   -6.7460   48.5640 C.3   141  ARG141      0.2205
    115  NE        60.6640   -5.4960   48.3630 N.pl3 141  ARG141     -0.0865
    116  CZ        60.0970   -4.3070   48.1660 C.cat 141  ARG141      0.5346
    117  NH1       58.7780   -4.2000   48.1370 N.pl3 141  ARG141      0.1354
    118  NH2       60.8440   -3.2180   48.0020 N.pl3 141  ARG141      0.1354
    119  N         64.1730   -4.7820   51.2380 N.3   177  LYS177     -0.1245
    120  CA        64.2870   -4.7610   52.6860 C.3   177  LYS177      0.1561
    121  C         65.2770   -5.8070   53.1890 C.2   177  LYS177      0.2260
    122  O         65.2090   -6.9750   52.8130 O.2   177  LYS177     -0.2867
    123  CB        62.9090   -4.9970   53.3050 C.3   177  LYS177      0.0271
    124  CG        62.8060   -4.6470   54.7760 C.3   177  LYS177      0.0035
    125  CD        61.3480   -4.5380   55.1870 C.3   177  LYS177      0.0206
    126  CE        61.2080   -4.0010   56.5960 C.3   177  LYS177      0.1093
    127  NZ        59.7820   -3.7360   56.9320 N.3   177  LYS177     -0.1314
@<TRIPOS>BOND
     1     4     3    2
     2     3     2    1
     3     1     2    1
     4     2     5    1
     5    29    30    1
     6    31    30    1
     7    31    32    2
     8     5     6    1
     9    30    33    1
    10   111   110    2
    11     6     7   ar
    12     6     8   ar
    13     7     9   ar
    14   110   109    1
    15    33    34    1
    16   105   104    2
    17    15    14    2
    18    34    35    1
    19     8    10   ar
    20   102   103    1
    21   104   103    1
    22   104   108   am
    23     9    11   ar
    24   103   106    1
    25    12    13    1
    26    14    13    1
    27   109   108    1
    28   109   112    1
    29    60    58    1
    30    24    23    2
    31    13    16    1
    32    10    11   ar
    33    28    26    1
    34    21    22    1
    35   112   113    1
    36    90    89    2
    37    35    36    1
    38   106   107    1
    39    23    22    1
    40    97    96    2
    41    58    57    1
    42    88    89    1
    43    88    87    1
    44    88    91    1
    45    89    94   am
    46    16    17    1
    47    22    25    1
    48    17    18    1
    49    26    25    1
    50    96    95    1
    51    59    57    1
    52   118   116    1
    53   117   116    1
    54   113   114    1
    55   116   115    2
    56   115   114    1
    57    25    27    1
    58    92    91    1
    59    57    54    1
    60    82    81    2
    61    93    91    1
    62    94    95    1
    63    95    98    1
    64    18    19    1
    65    85    84    2
    66    81    80    1
    67    54    53    1
    68    54    55    1
    69    53    47   am
    70    84    86   am
    71    84    83    1
    72    19    20    1
    73    51    50   ar
    74    98    99    1
    75    56    55    2
    76    55    61   am
    77    46    47    1
    78    46    45    1
    79    46    49    1
    80    47    48    2
    81    37    38    1
    82    80    83    1
    83    80    79    1
    84    64    63    2
    85   101    99   am
    86    99   100    2
    87    78    77    2
    88    79    77   am
    89    50    49    1
    90    50    52   ar
    91    77    76    1
    92   119   120    1
    93    61    62    1
    94    39    38    1
    95    39    40    2
    96    63    62    1
    97    63    75   am
    98    38    41    1
    99    76    75    1
   100    62    65    1
   101   120   121    1
   102   120   123    1
   103    44    42    1
   104   122   121    2
   105    41    42    1
   106    41    43    1
   107   123   124    1
   108    65    66    1
   109    66    68   ar
   110    66    67   ar
   111    71    68   ar
   112    71    73   ar
   113    68    70   ar
   114    73    74   ar
   115    67    69   ar
   116    70    69   ar
   117    70    72   ar
   118   124   125    1
   119    74    72   ar
   120   125   126    1
   121   126   127    1
