@<TRIPOS>MOLECULE
tmp/1tl7C00.pdb
 201 193 0 0 0
SMALL
GASTEIGER

@<TRIPOS>ATOM
      1  N         26.4290    1.6540   24.0070 N.3    11  GLY11      -0.1210
      2  CA        25.9570    2.8620   24.6660 C.3    11  GLY11       0.1956
      3  C         24.7670    3.5350   23.9990 C.2    11  GLY11       0.2612
      4  O         24.7400    3.7140   22.7810 O.2    11  GLY11      -0.2717
      5  N         23.7810    3.9080   24.8100 N.am   12  GLU12      -0.1965
      6  CA        22.5710    4.5750   24.3350 C.3    12  GLU12       0.1733
      7  C         21.7410    3.7010   23.3970 C.2    12  GLU12       0.2617
      8  O         20.8560    4.1950   22.6980 O.2    12  GLU12      -0.2715
      9  CB        22.9390    5.8740   23.6210 C.3    12  GLU12       0.0429
     10  CG        23.6330    6.8920   24.4940 C.3    12  GLU12       0.1163
     11  CD        24.4350    7.8740   23.6680 C.2    12  GLU12       0.3649
     12  OE1       25.4190    7.4290   23.0380 O.co2  12  GLU12      -0.2457
     13  OE2       24.0800    9.0750   23.6380 O.co2  12  GLU12      -0.2457
     14  N         22.0270    2.4040   23.3870 N.am   13  SER13      -0.1936
     15  CA        21.3060    1.4730   22.5300 C.3    13  SER13       0.2055
     16  C         19.8380    1.3940   22.9170 C.2    13  SER13       0.2644
     17  O         19.0060    0.9760   22.1110 O.2    13  SER13      -0.2714
     18  CB        21.9370    0.0800   22.6020 C.3    13  SER13       0.2130
     19  OG        21.8810   -0.4460   23.9160 O.3    13  SER13      -0.2179
     20  N         19.5330    1.7950   24.1530 N.am   14  GLY14      -0.1939
     21  CA        18.1620    1.7840   24.6400 C.3    14  GLY14       0.2014
     22  C         17.8810    0.7750   25.7390 C.2    14  GLY14       0.2639
     23  O         16.7390    0.3490   25.9220 O.2    14  GLY14      -0.2714
     24  N         18.9110    0.3950   26.4840 N.am   15  LYS15      -0.1963
     25  CA        18.7430   -0.5810   27.5520 C.3    15  LYS15       0.1728
     26  C         17.8390   -0.0810   28.6730 C.2    15  LYS15       0.2617
     27  O         16.8960   -0.7650   29.0780 O.2    15  LYS15      -0.2715
     28  CB        20.1040   -0.9690   28.1340 C.3    15  LYS15       0.0311
     29  CG        21.0370   -1.6720   27.1530 C.3    15  LYS15       0.0038
     30  CD        22.3350   -2.1490   27.8240 C.3    15  LYS15       0.0206
     31  CE        23.2050   -0.9850   28.2760 C.3    15  LYS15       0.1093
     32  NZ        23.6110   -0.0960   27.1520 N.3    15  LYS15      -0.1314
     33  N         18.1320    1.1130   29.1760 N.am   16  SER16      -0.1936
     34  CA        17.3500    1.6870   30.2620 C.3    16  SER16       0.2055
     35  C         15.8850    1.9650   29.8940 C.2    16  SER16       0.2643
     36  O         15.0010    1.9060   30.7570 O.2    16  SER16      -0.2714
     37  CB        18.0220    2.9730   30.7630 C.3    16  SER16       0.2130
     38  OG        19.2630    2.7030   31.3970 O.3    16  SER16      -0.2179
     39  N         15.6370    2.2500   28.6150 N.am   17  THR17      -0.1950
     40  CA        14.2930    2.5460   28.1210 C.3    17  THR17       0.1897
     41  C         13.3560    1.3390   28.1830 C.2    17  THR17       0.2313
     42  O         12.1430    1.4950   28.3320 O.2    17  THR17      -0.2863
     43  CB        14.3340    3.0680   26.6680 C.3    17  THR17       0.1794
     44  OG1       15.1720    4.2280   26.5940 O.3    17  THR17      -0.2208
     45  CG2       12.9450    3.4420   26.2090 C.3    17  THR17       0.0378
     46  N         12.3480    0.6980   31.7210 N.3    20  LYS20      -0.1245
     47  CA        11.3430    1.7070   32.0300 C.3    20  LYS20       0.1561
     48  C          9.9910    1.1410   31.6200 C.2    20  LYS20       0.2260
     49  O          9.0480    1.1190   32.4090 O.2    20  LYS20      -0.2867
     50  CB        11.6020    3.0030   31.2550 C.3    20  LYS20       0.0271
     51  CG        12.6840    3.8990   31.8370 C.3    20  LYS20       0.0035
     52  CD        12.8050    5.1850   31.0270 C.3    20  LYS20       0.0206
     53  CE        13.9430    6.0600   31.5200 C.3    20  LYS20       0.1093
     54  NZ        14.2660    7.1370   30.5440 N.3    20  LYS20      -0.1314
     55  N         19.6720   11.5350   21.8550 N.3   115  ASP115     -0.1225
     56  CA        18.4550   11.2250   21.1050 C.3   115  ASP115      0.1805
     57  C         17.2480   12.1440   21.3210 C.2   115  ASP115      0.2598
     58  O         16.6330   12.6160   20.3640 O.2   115  ASP115     -0.2718
     59  CB        18.0260    9.7850   21.4140 C.3   115  ASP115      0.1424
     60  CG        19.0130    8.7420   20.9000 C.2   115  ASP115      0.3668
     61  OD1       19.0300    8.4870   19.6720 O.co2 115  ASP115     -0.2456
     62  OD2       19.7610    8.1800   21.7340 O.co2 115  ASP115     -0.2456
     63  N         16.9050   12.3790   22.5800 N.am  116  CYS116     -0.1970
     64  CA        15.7490   13.1980   22.9400 C.3   116  CYS116      0.1712
     65  C         15.7920   14.6860   22.5870 C.2   116  CYS116      0.2296
     66  O         14.9210   15.4440   23.0130 O.2   116  CYS116     -0.2864
     67  CB        15.4830   13.0490   24.4430 C.3   116  CYS116      0.0983
     68  SG        16.9070   13.4410   25.5100 S.3   116  CYS116     -0.0798
     69  N         10.2070    8.4320   29.2290 N.3   140  LEU140     -0.1231
     70  CA        10.7820    7.4140   28.3480 C.3   140  LEU140      0.1693
     71  C         11.9320    8.0050   27.5570 C.2   140  LEU140      0.2592
     72  O         12.9000    7.3150   27.2240 O.2   140  LEU140     -0.2718
     73  CB         9.7300    6.8910   27.3660 C.3   140  LEU140      0.0284
     74  CG         8.6320    5.9950   27.9380 C.3   140  LEU140      0.0019
     75  CD1        7.4400    5.9870   27.0020 C.3   140  LEU140      0.0001
     76  CD2        9.1740    4.5840   28.1550 C.3   140  LEU140      0.0001
     77  N         11.8040    9.2940   27.2630 N.am  141  ARG141     -0.1966
     78  CA        12.7970   10.0350   26.5050 C.3   141  ARG141      0.1729
     79  C         13.9510   10.5170   27.3690 C.2   141  ARG141      0.2616
     80  O         15.0780   10.6240   26.8930 O.2   141  ARG141     -0.2715
     81  CB        12.1350   11.2320   25.8440 C.3   141  ARG141      0.0348
     82  CG        10.9540   10.8630   24.9950 C.3   141  ARG141      0.0492
     83  CD        11.3990   10.3040   23.6720 C.3   141  ARG141      0.2205
     84  NE        10.2820   10.1960   22.7420 N.pl3 141  ARG141     -0.0865
     85  CZ        10.4200   10.0920   21.4260 C.cat 141  ARG141      0.5346
     86  NH1       11.6350   10.0850   20.8890 N.pl3 141  ARG141      0.1354
     87  NH2        9.3470    9.9990   20.6480 N.pl3 141  ARG141      0.1354
     88  N         13.6690   10.8150   28.6340 N.am  142  CYS142     -0.1954
     89  CA        14.6980   11.2870   29.5570 C.3   142  CYS142      0.1843
     90  C         15.9150   10.3720   29.5280 C.2   142  CYS142      0.2625
     91  O         15.8580    9.2440   30.0110 O.2   142  CYS142     -0.2714
     92  CB        14.1480   11.3410   30.9810 C.3   142  CYS142      0.0997
     93  SG        15.3750   11.8730   32.1880 S.3   142  CYS142     -0.0797
     94  N         17.0150   10.8620   28.9680 N.am  143  ARG143     -0.1963
     95  CA        18.2330   10.0730   28.8730 C.3   143  ARG143      0.1729
     96  C         19.1840   10.3770   30.0160 C.2   143  ARG143      0.2616
     97  O         19.5410   11.5290   30.2600 O.2   143  ARG143     -0.2715
     98  CB        18.9280   10.3300   27.5360 C.3   143  ARG143      0.0348
     99  CG        20.1580    9.4680   27.3150 C.3   143  ARG143      0.0492
    100  CD        21.4520   10.2330   27.5570 C.3   143  ARG143      0.2205
    101  NE        22.6230    9.3580   27.5230 N.pl3 143  ARG143     -0.0865
    102  CZ        23.8850    9.7800   27.4960 C.cat 143  ARG143      0.5346
    103  NH1       24.1650   11.0790   27.4940 N.pl3 143  ARG143      0.1354
    104  NH2       24.8720    8.8930   27.4750 N.pl3 143  ARG143      0.1354
    105  N         19.5750    9.3260   30.7240 N.am  144  VAL144     -0.1963
    106  CA        20.4890    9.4370   31.8480 C.3   144  VAL144      0.1727
    107  C         21.3470    8.1850   31.8430 C.2   144  VAL144      0.2616
    108  O         20.8640    7.0880   32.1320 O.2   144  VAL144     -0.2715
    109  CB        19.7320    9.5200   33.1780 C.3   144  VAL144      0.0290
    110  CG1       20.7210    9.6000   34.3350 C.3   144  VAL144      0.0023
    111  CG2       18.8330   10.7330   33.1750 C.3   144  VAL144      0.0023
    112  N         22.6210    8.3550   31.5040 N.am  145  LEU145     -0.1963
    113  CA        23.5520    7.2340   31.4350 C.3   145  LEU145      0.1728
    114  C         23.5810    6.3850   32.7040 C.2   145  LEU145      0.2616
    115  O         23.4970    6.9010   33.8260 O.2   145  LEU145     -0.2715
    116  CB        24.9650    7.7360   31.1010 C.3   145  LEU145      0.0311
    117  CG        26.0720    6.6800   31.0070 C.3   145  LEU145      0.0022
    118  CD1       27.0700    7.0800   29.9390 C.3   145  LEU145      0.0001
    119  CD2       26.7460    6.5090   32.3530 C.3   145  LEU145      0.0001
    120  N         23.6940    5.0730   32.5000 N.am  146  THR146     -0.1951
    121  CA        23.7440    4.1100   33.5890 C.3   146  THR146      0.1897
    122  C         25.1550    3.5790   33.7680 C.2   146  THR146      0.2313
    123  O         25.7640    3.0900   32.8230 O.2   146  THR146     -0.2863
    124  CB        22.7960    2.9170   33.3270 C.3   146  THR146      0.1794
    125  OG1       21.4380    3.3450   33.4790 O.3   146  THR146     -0.2208
    126  CG2       23.0720    1.7810   34.2980 C.3   146  THR146      0.0378
    127  N         22.7710   -2.6990   32.8450 N.3   166  VAL166     -0.1231
    128  CA        24.1830   -2.3920   33.0060 C.3   166  VAL166      0.1692
    129  C         24.5960   -1.2360   32.1200 C.2   166  VAL166      0.2593
    130  O         23.7990   -0.7390   31.3320 O.2   166  VAL166     -0.2718
    131  CB        25.0290   -3.6170   32.6280 C.3   166  VAL166      0.0266
    132  CG1       24.8200   -4.7290   33.6460 C.3   166  VAL166      0.0020
    133  CG2       24.6180   -4.1150   31.2510 C.3   166  VAL166      0.0020
    134  N         25.8440   -0.8030   32.2620 N.am  167  GLY167     -0.1942
    135  CA        26.3380    0.2790   31.4350 C.3   167  GLY167      0.2014
    136  C         26.7300   -0.2880   30.0850 C.2   167  GLY167      0.2639
    137  O         27.2970   -1.3720   30.0190 O.2   167  GLY167     -0.2714
    138  N         26.4300    0.4260   29.0060 N.am  168  GLY168     -0.1939
    139  CA        26.7750   -0.0680   27.6830 C.3   168  GLY168      0.2014
    140  C         28.1250    0.4030   27.1760 C.2   168  GLY168      0.2638
    141  O         28.7480   -0.2570   26.3450 O.2   168  GLY168     -0.2714
    142  N         28.5850    1.5470   27.6700 N.am  169  GLN169     -0.1977
    143  CA        29.8670    2.0890   27.2420 C.3   169  GLN169      0.1601
    144  C         31.0080    1.1300   27.5840 C.2   169  GLN169      0.2287
    145  O         30.9320    0.3790   28.5550 O.2   169  GLN169     -0.2864
    146  CB        30.0930    3.4560   27.8900 C.3   169  GLN169      0.0394
    147  CG        28.9290    4.4190   27.6840 C.3   169  GLN169      0.0908
    148  CD        29.3410    5.8770   27.7610 C.2   169  GLN169      0.2608
    149  OE1       30.0290    6.2980   28.6950 O.2   169  GLN169     -0.2717
    150  NE2       28.9140    6.6610   26.7750 N.am  169  GLN169     -0.0878
    151  N         16.3260   -2.2670   17.9460 N.3   234  ASN234     -0.1225
    152  CA        15.6270   -1.0750   18.3820 C.3   234  ASN234      0.1785
    153  C         15.8160    0.1870   17.5460 C.2   234  ASN234      0.2597
    154  O         16.6240    0.2260   16.6180 O.2   234  ASN234     -0.2718
    155  CB        16.0140   -0.7960   19.8300 C.3   234  ASN234      0.1169
    156  CG        15.1280    0.2370   20.4740 C.2   234  ASN234      0.2627
    157  OD1       13.9040    0.2130   20.3040 O.2   234  ASN234     -0.2716
    158  ND2       15.7360    1.1510   21.2310 N.am  234  ASN234     -0.0877
    159  N         15.0470    1.2150   17.9020 N.am  235  LYS235     -0.1980
    160  CA        15.0710    2.5130   17.2360 C.3   235  LYS235      0.1596
    161  C         14.6960    2.3780   15.7750 C.2   235  LYS235      0.2287
    162  O         15.3030    2.9950   14.8910 O.2   235  LYS235     -0.2864
    163  CB        16.4470    3.1730   17.3780 C.3   235  LYS235      0.0298
    164  CG        16.8380    3.4480   18.8260 C.3   235  LYS235      0.0038
    165  CD        18.0310    4.3710   18.9260 C.3   235  LYS235      0.0206
    166  CE        18.2670    4.7900   20.3700 C.3   235  LYS235      0.1093
    167  NZ        19.3820    5.7670   20.5230 N.3   235  LYS235     -0.1314
    168  N         11.8710    3.3380   14.5090 N.3   237  ASP237     -0.1225
    169  CA        11.2570    4.6090   14.1400 C.3   237  ASP237      0.1805
    170  C         12.2940    5.5780   13.5840 C.2   237  ASP237      0.2597
    171  O         12.0540    6.2640   12.5940 O.2   237  ASP237     -0.2718
    172  CB        10.5700    5.2230   15.3600 C.3   237  ASP237      0.1424
    173  CG        11.4810    5.2830   16.5710 C.2   237  ASP237      0.3668
    174  OD1       12.0770    4.2490   16.9340 O.co2 237  ASP237     -0.2456
    175  OD2       11.6040    6.3670   17.1680 O.co2 237  ASP237     -0.2456
    176  N         13.4550    5.6260   14.2220 N.am  238  LEU238     -0.1979
    177  CA        14.5210    6.5080   13.7760 C.3   238  LEU238      0.1596
    178  C         15.1060    6.0220   12.4580 C.2   238  LEU238      0.2287
    179  O         15.4190    6.8180   11.5660 O.2   238  LEU238     -0.2864
    180  CB        15.6130    6.5670   14.8390 C.3   238  LEU238      0.0297
    181  CG        15.2350    7.2890   16.1350 C.3   238  LEU238      0.0022
    182  CD1       16.3840    7.1870   17.1370 C.3   238  LEU238      0.0001
    183  CD2       14.9310    8.7520   15.8340 C.3   238  LEU238      0.0001
    184  N         11.0120   -0.6420   19.1580 N.3   307  CYS307     -0.1221
    185  CA        11.0320    0.7870   19.4370 C.3   307  CYS307      0.1808
    186  C         10.7270    0.9020   20.9260 C.2   307  CYS307      0.2601
    187  O          9.5640    0.9390   21.3210 O.2   307  CYS307     -0.2717
    188  CB         9.9520    1.5170   18.6370 C.3   307  CYS307      0.0970
    189  SG         9.7790    3.2600   19.1200 S.3   307  CYS307     -0.0800
    190  N         11.7790    0.9500   21.7390 N.am  308  ALA308     -0.1965
    191  CA        11.6710    1.0190   23.1950 C.3   308  ALA308      0.1728
    192  C         10.7910    2.1210   23.7730 C.2   308  ALA308      0.2616
    193  O         10.0620    1.8760   24.7300 O.2   308  ALA308     -0.2715
    194  CB        13.0550    1.1090   23.8020 C.3   308  ALA308      0.0334
    195  N         10.8620    3.3260   23.2120 N.am  309  VAL309     -0.1977
    196  CA        10.0560    4.4420   23.7090 C.3   309  VAL309      0.1596
    197  C          8.5640    4.1990   23.4750 C.2   309  VAL309      0.2287
    198  O          7.7180    4.9070   24.0200 O.2   309  VAL309     -0.2864
    199  CB        10.4590    5.7830   23.0350 C.3   309  VAL309      0.0276
    200  CG1       11.7910    6.2610   23.5760 C.3   309  VAL309      0.0022
    201  CG2       10.5550    5.6010   21.5180 C.3   309  VAL309      0.0022
@<TRIPOS>BOND
     1   179   178    2
     2   178   177    1
     3   171   170    2
     4   170   169    1
     5   170   176   am
     6   177   176    1
     7   177   180    1
     8   169   168    1
     9   169   172    1
    10   180   181    1
    11   162   161    2
    12   172   173    1
    13   161   160    1
    14   183   181    1
    15   181   182    1
    16   173   174   ar
    17   173   175   ar
    18   154   153    2
    19   160   163    1
    20   160   159    1
    21   163   164    1
    22   153   159   am
    23   153   152    1
    24   151   152    1
    25   152   155    1
    26   188   189    1
    27   188   185    1
    28   164   165    1
    29   165   166    1
    30   184   185    1
    31   185   186    1
    32    61    60   ar
    33   155   156    1
    34   157   156    2
    35    58    57    2
    36   166   167    1
    37   156   158   am
    38    87    85    1
    39    86    85    1
    40    60    59    1
    41    60    62   ar
    42   186   187    2
    43   186   190   am
    44    56    57    1
    45    56    59    1
    46    56    55    1
    47    57    63   am
    48    85    84    2
    49   201   199    1
    50   190   191    1
    51    17    16    2
    52    15    18    1
    53    15    16    1
    54    15    14    1
    55    63    64    1
    56    65    64    1
    57    65    66    2
    58    18    19    1
    59     8     7    2
    60    84    83    1
    61     4     3    2
    62    16    20   am
    63    64    67    1
    64   199   200    1
    65   199   196    1
    66    12    11   ar
    67   191   192    1
    68   191   194    1
    69   195   196    1
    70   195   192   am
    71    14     7   am
    72     7     6    1
    73   197   196    1
    74   197   198    2
    75     9     6    1
    76     9    10    1
    77    13    11   ar
    78    11    10    1
    79    83    82    1
    80   192   193    2
    81     3     2    1
    82     3     5   am
    83     1     2    1
    84    20    21    1
    85     6     5    1
    86    67    68    1
    87    21    22    1
    88    82    81    1
    89    22    23    2
    90    22    24   am
    91    81    78    1
    92    45    43    1
    93   141   140    2
    94    24    25    1
    95    78    77    1
    96    78    79    1
    97    44    43    1
    98    43    40    1
    99   150   148   am
   100    80    79    2
   101    75    74    1
   102    32    31    1
   103    29    30    1
   104    29    28    1
   105   140   142   am
   106   140   139    1
   107    72    71    2
   108   143   144    1
   109   143   142    1
   110   143   146    1
   111    77    71   am
   112    99    98    1
   113    99   100    1
   114    73    74    1
   115    73    70    1
   116    79    88   am
   117   104   102    1
   118   103   102    1
   119   102   101    2
   120   101   100    1
   121    98    95    1
   122    25    28    1
   123    25    26    1
   124    71    70    1
   125   144   145    2
   126   139   138    1
   127   147   148    1
   128   147   146    1
   129   148   149    2
   130    30    31    1
   131    74    76    1
   132    40    41    1
   133    40    39    1
   134    41    42    2
   135    70    69    1
   136    39    35   am
   137    88    89    1
   138    26    27    2
   139    26    33   am
   140    95    94    1
   141    95    96    1
   142    94    90   am
   143   138   136   am
   144    33    34    1
   145    90    89    1
   146    90    91    2
   147    89    92    1
   148    35    34    1
   149    35    36    2
   150   118   117    1
   151    96    97    2
   152    96   105   am
   153   137   136    2
   154   136   135    1
   155    34    37    1
   156    54    53    1
   157   105   106    1
   158    37    38    1
   159    92    93    1
   160   117   116    1
   161   117   119    1
   162    52    53    1
   163    52    51    1
   164   116   113    1
   165   133   131    1
   166    50    51    1
   167    50    47    1
   168   130   129    2
   169   113   112    1
   170   113   114    1
   171   135   134    1
   172   112   107   am
   173    48    47    1
   174    48    49    2
   175    46    47    1
   176   107   106    1
   177   107   108    2
   178   106   109    1
   179   129   134   am
   180   129   128    1
   181   120   114   am
   182   120   121    1
   183   131   128    1
   184   131   132    1
   185   114   115    2
   186   123   122    2
   187   127   128    1
   188   111   109    1
   189   109   110    1
   190   124   125    1
   191   124   121    1
   192   124   126    1
   193   121   122    1
