@<TRIPOS>MOLECULE
tmp/1tl8D00.pdb
 102 93 0 0 0
SMALL
GASTEIGER

@<TRIPOS>ATOM
      1  N         28.9710  -12.0810   29.0830 N.3   152  ASN152     -0.1240
      2  CA        27.8820  -12.9320   29.5970 C.3   152  ASN152      0.1653
      3  C         27.7620  -14.1780   28.7560 C.2   152  ASN152      0.2266
      4  O         26.9260  -14.3020   27.8570 O.2   152  ASN152     -0.2867
      5  CB        26.5060  -12.2000   29.8310 C.3   152  ASN152      0.1155
      6  CG        26.0600  -11.2320   28.6720 C.2   152  ASN152      0.2627
      7  OD1       24.8680  -10.8820   28.5680 O.2   152  ASN152     -0.2716
      8  ND2       27.0040  -10.7700   27.8580 N.am  152  ASN152     -0.0877
      9  N         21.0280  -16.8190   27.1110 N.3   156  GLU156     -0.1245
     10  CA        19.7100  -16.4750   27.6650 C.3   156  GLU156      0.1567
     11  C         18.6900  -17.6180   27.6340 C.2   156  GLU156      0.2260
     12  O         18.5740  -18.3590   26.6480 O.2   156  GLU156     -0.2867
     13  CB        19.1640  -15.1660   27.0390 C.3   156  GLU156      0.0388
     14  CG        18.0940  -14.3510   27.9000 C.3   156  GLU156      0.1160
     15  CD        18.6180  -13.6720   29.2300 C.2   156  GLU156      0.3649
     16  OE1       17.9100  -13.7830   30.2690 O.co2 156  GLU156     -0.2457
     17  OE2       19.6900  -12.9960   29.2340 O.co2 156  GLU156     -0.2457
     18  N         10.8110   -3.4590   25.5080 N.3   164  ARG164     -0.1245
     19  CA        10.3680   -2.1930   26.0270 C.3   164  ARG164      0.1563
     20  C          9.2970   -1.5390   25.1780 C.2   164  ARG164      0.2260
     21  O          9.2140   -1.7760   23.9740 O.2   164  ARG164     -0.2867
     22  CB        11.5560   -1.3050   26.4290 C.3   164  ARG164      0.0307
     23  CG        12.1050   -1.7370   27.8390 C.3   164  ARG164      0.0489
     24  CD        13.5080   -1.2210   28.2820 C.3   164  ARG164      0.2205
     25  NE        14.6360   -1.8490   27.5710 N.pl3 164  ARG164     -0.0865
     26  CZ        15.5490   -2.6710   28.1070 C.cat 164  ARG164      0.5346
     27  NH1       15.5050   -3.0220   29.4000 N.pl3 164  ARG164      0.1354
     28  NH2       16.5550   -3.1020   27.3420 N.pl3 164  ARG164      0.1354
     29  N         10.5490  -17.2460   23.3960 N.3   174  LYS174     -0.1197
     30  CA        11.9850  -17.1470   23.0410 C.3   174  LYS174      0.1778
     31  C         12.3980  -18.5850   23.1810 C.2   174  LYS174      0.2305
     32  O         12.2950  -19.1780   24.2360 O.2   174  LYS174     -0.2863
     33  CB        12.7630  -16.2450   23.9970 C.2   174  LYS174     -0.0042
     34  CG        12.2690  -14.7880   24.0680 C.2   174  LYS174     -0.0273
     35  CD        13.1540  -13.8210   24.9150 C.3   174  LYS174      0.0462
     36  CE        13.1980  -14.1920   26.4160 C.3   174  LYS174      0.1140
     37  NZ        13.2390  -13.0360   27.3630 N.3   174  LYS174     -0.1310
     38  N         22.4740  -12.3200   17.8740 N.3   225  LYS225     -0.1245
     39  CA        22.9860  -12.0820   19.2480 C.3   225  LYS225      0.1565
     40  C         24.4140  -12.6440   19.3400 C.2   225  LYS225      0.2260
     41  O         24.8090  -13.4190   18.4620 O.2   225  LYS225     -0.2867
     42  CB        22.0400  -12.6410   20.3490 C.3   225  LYS225      0.0317
     43  CG        21.0380  -11.5640   20.8510 C.3   225  LYS225      0.0294
     44  CD        20.0180  -11.9830   21.9740 C.2   225  LYS225     -0.0067
     45  CE        20.6370  -12.4270   23.3570 C.2   225  LYS225      0.1012
     46  NZ        19.6940  -13.2530   24.2760 N.pl3 225  LYS225     -0.1270
     47  N         34.2000   -5.4510   29.1380 N.3   231  PRO231     -0.2116
     48  CA        34.6480   -4.1190   28.7550 C.3   231  PRO231      0.1372
     49  C         36.0160   -3.7380   29.2400 C.2   231  PRO231      0.2244
     50  O         36.5680   -2.7340   28.7960 O.2   231  PRO231     -0.2868
     51  CB        33.5790   -3.2440   29.3490 C.3   231  PRO231      0.0268
     52  CG        32.4020   -4.0410   29.1530 C.3   231  PRO231      0.0207
     53  CD        32.8200   -5.3900   29.6390 C.3   231  PRO231      0.0892
     54  N         14.3690    6.2470   22.0160 N.3   332  LYS332     -0.1231
     55  CA        14.9150    4.8920   22.2210 C.3   332  LYS332      0.1693
     56  C         14.3000    4.3280   23.5140 C.2   332  LYS332      0.2592
     57  O         13.9460    5.1120   24.4080 O.2   332  LYS332     -0.2718
     58  CB        16.4430    4.9580   22.3270 C.3   332  LYS332      0.0285
     59  CG        17.1560    3.6980   22.8370 C.3   332  LYS332      0.0035
     60  CD        18.6780    3.7980   22.7810 C.3   332  LYS332      0.0206
     61  CE        19.3460    2.7500   23.6590 C.3   332  LYS332      0.1093
     62  NZ        18.8980    1.3360   23.4640 N.3   332  LYS332     -0.1314
     63  N         14.1190    2.9970   23.5760 N.am  333  ASP333     -0.1974
     64  CA        13.5310    2.2760   24.7320 C.3   333  ASP333      0.1709
     65  C         12.1790    2.8480   25.1590 C.2   333  ASP333      0.2293
     66  O         11.7810    2.7700   26.3250 O.2   333  ASP333     -0.2864
     67  CB        14.4920    2.2300   25.9300 C.3   333  ASP333      0.1436
     68  CG        15.6970    1.3340   25.6900 C.2   333  ASP333      0.3671
     69  OD1       15.5540    0.1020   25.7080 O.co2 333  ASP333     -0.2456
     70  OD2       16.8150    1.8570   25.5260 O.co2 333  ASP333     -0.2456
     71  N         23.8620    5.3020   32.2420 N.3   518  THR518     -0.1218
     72  CA        24.2790    5.3000   30.8210 C.3   518  THR518      0.1862
     73  C         25.3550    6.3220   30.4880 C.2   518  THR518      0.2287
     74  O         26.3680    5.9590   29.8920 O.2   518  THR518     -0.2866
     75  CB        23.0530    5.3730   29.8320 C.3   518  THR518      0.1770
     76  OG1       22.2180    4.2370   30.0390 O.3   518  THR518     -0.2211
     77  CG2       23.4650    5.2700   28.3990 C.3   518  THR518      0.0375
     78  N         29.0080    5.1250   32.0780 N.3   521  LEU521     -0.1231
     79  CA        29.7250    4.1270   31.2930 C.3   521  LEU521      0.1693
     80  C         29.7890    4.4060   29.7710 C.2   521  LEU521      0.2592
     81  O         30.8780    4.4610   29.1980 O.2   521  LEU521     -0.2718
     82  CB        29.1580    2.7200   31.5420 C.3   521  LEU521      0.0284
     83  CG        29.4240    2.0030   32.8690 C.3   521  LEU521      0.0019
     84  CD1       28.4830    2.5200   33.9460 C.3   521  LEU521      0.0001
     85  CD2       29.2250    0.4930   32.6560 C.3   521  LEU521      0.0001
     86  N         28.6480    4.6820   29.1460 N.am  522  ASN522     -0.1974
     87  CA        28.6290    4.8920   27.7170 C.3   522  ASN522      0.1688
     88  C         28.9540    6.2450   27.0860 C.2   522  ASN522      0.2292
     89  O         29.5860    6.2970   26.0420 O.2   522  ASN522     -0.2864
     90  CB        27.4080    4.1990   27.1350 C.3   522  ASN522      0.1181
     91  CG        27.5080    2.7010   27.2670 C.2   522  ASN522      0.2629
     92  OD1       28.1880    2.0440   26.4600 O.2   522  ASN522     -0.2716
     93  ND2       26.9320    2.1550   28.3470 N.am  522  ASN522     -0.0877
     94  N         36.7850   -1.3720   33.5510 N.3   550  LYS550     -0.1245
     95  CA        36.4470   -0.9440   32.1740 C.3   550  LYS550      0.1561
     96  C         37.2750    0.2410   31.7950 C.2   550  LYS550      0.2260
     97  O         37.7220    0.3590   30.6280 O.2   550  LYS550     -0.2867
     98  CB        34.9500   -0.5530   32.0530 C.3   550  LYS550      0.0271
     99  CG        34.5520    0.0720   30.7210 C.3   550  LYS550      0.0035
    100  CD        33.1240    0.4940   30.6850 C.3   550  LYS550      0.0206
    101  CE        32.8230    0.9980   29.2960 C.3   550  LYS550      0.1093
    102  NZ        31.4380    1.4940   29.1410 N.3   550  LYS550     -0.1314
@<TRIPOS>BOND
     1    38    39    1
     2    41    40    2
     3    39    40    1
     4    39    42    1
     5    42    43    1
     6    43    44    1
     7    44    45    2
     8    54    55    1
     9    55    58    1
    10    55    56    1
    11    58    59    1
    12    60    59    1
    13    60    61    1
    14    30    31    1
    15    30    29    1
    16    30    33    1
    17    31    32    2
    18    45    46    1
    19    62    61    1
    20    56    63   am
    21    56    57    2
    22    63    64    1
    23    21    20    2
    24    33    34    2
    25    34    35    1
    26    64    65    1
    27    64    67    1
    28    35    36    1
    29    65    66    2
    30    20    19    1
    31    18    19    1
    32    70    68   ar
    33    68    69   ar
    34    68    67    1
    35    19    22    1
    36    89    88    2
    37    36    37    1
    38    22    23    1
    39    92    91    2
    40    12    11    2
    41    13    10    1
    42    13    14    1
    43    88    87    1
    44     9    10    1
    45    90    91    1
    46    90    87    1
    47    91    93   am
    48    28    26    1
    49    25    26    2
    50    25    24    1
    51    11    10    1
    52    87    86    1
    53    23    24    1
    54     4     3    2
    55     8     6   am
    56    14    15    1
    57    26    27    1
    58    77    75    1
    59     7     6    2
    60     6     5    1
    61    48    47    1
    62    48    49    1
    63    48    51    1
    64     3     2    1
    65    50    49    2
    66     1     2    1
    67    47    53    1
    68   102   101    1
    69    86    80   am
    70    52    51    1
    71    52    53    1
    72    81    80    2
    73    15    17   ar
    74    15    16   ar
    75   101   100    1
    76     2     5    1
    77    80    79    1
    78    75    76    1
    79    75    72    1
    80    74    73    2
    81    73    72    1
    82    97    96    2
    83   100    99    1
    84    99    98    1
    85    72    71    1
    86    79    82    1
    87    79    78    1
    88    82    83    1
    89    96    95    1
    90    98    95    1
    91    95    94    1
    92    85    83    1
    93    83    84    1
