@<TRIPOS>MOLECULE
tmp/1tl9A00.pdb
 184 177 0 0 0
SMALL
GASTEIGER

@<TRIPOS>ATOM
      1  N         20.3560   26.6950   41.4830 N.3    40  GLU40      -0.1245
      2  CA        20.2250   26.3790   40.0530 C.3    40  GLU40       0.1567
      3  C         18.9400   25.6050   39.8110 C.2    40  GLU40       0.2260
      4  O         18.2740   25.7830   38.7940 O.2    40  GLU40      -0.2867
      5  CB        21.4310   25.5670   39.5570 C.3    40  GLU40       0.0388
      6  CG        21.4120   25.2180   38.0610 C.3    40  GLU40       0.1160
      7  CD        22.4620   24.1990   37.6630 C.2    40  GLU40       0.3649
      8  OE1       23.4910   24.0920   38.3610 O.co2  40  GLU40      -0.2457
      9  OE2       22.2590   23.5080   36.6390 O.co2  40  GLU40      -0.2457
     10  N         13.9100   26.8230   35.5280 N.3    47  LYS47      -0.1245
     11  CA        14.0740   25.4520   35.0450 C.3    47  LYS47       0.1561
     12  C         13.2100   24.4620   35.8310 C.2    47  LYS47       0.2260
     13  O         12.9160   23.3720   35.3330 O.2    47  LYS47      -0.2867
     14  CB        15.5420   25.0220   35.1130 C.3    47  LYS47       0.0271
     15  CG        16.4740   25.7860   34.1730 C.3    47  LYS47       0.0035
     16  CD        17.7770   25.0320   33.9100 C.3    47  LYS47       0.0206
     17  CE        18.6770   24.9490   35.1310 C.3    47  LYS47       0.1093
     18  NZ        19.9250   24.1870   34.8240 N.3    47  LYS47      -0.1314
     19  N         21.9990   13.9730   28.5150 N.3    77  GLN77      -0.1245
     20  CA        21.8970   14.9970   29.5590 C.3    77  GLN77       0.1566
     21  C         20.6880   15.9220   29.5000 C.2    77  GLN77       0.2260
     22  O         20.2420   16.3180   28.4200 O.2    77  GLN77      -0.2867
     23  CB        23.1770   15.8310   29.5660 C.3    77  GLN77       0.0367
     24  CG        23.4200   16.7030   30.8060 C.3    77  GLN77       0.0905
     25  CD        24.7960   17.3410   30.7890 C.2    77  GLN77       0.2608
     26  OE1       25.7430   16.7750   30.2440 O.2    77  GLN77      -0.2717
     27  NE2       24.9100   18.5360   31.3630 N.am   77  GLN77      -0.0878
     28  N         20.7410   19.8970   33.9030 N.3    80  LEU80      -0.1231
     29  CA        21.6560   19.7860   35.0350 C.3    80  LEU80       0.1693
     30  C         23.0820   19.7000   34.5090 C.2    80  LEU80       0.2592
     31  O         23.3210   19.1110   33.4540 O.2    80  LEU80      -0.2718
     32  CB        21.3200   18.5200   35.8410 C.3    80  LEU80       0.0284
     33  CG        22.0650   18.1140   37.1150 C.3    80  LEU80       0.0019
     34  CD1       21.9800   19.1930   38.1630 C.3    80  LEU80       0.0001
     35  CD2       21.4860   16.8100   37.6390 C.3    80  LEU80       0.0001
     36  N         24.0250   20.2610   35.2640 N.am   81  GLY81      -0.1957
     37  CA        25.4210   20.2310   34.8600 C.3    81  GLY81       0.1869
     38  C         26.1710   19.0080   35.3530 C.2    81  GLY81       0.2309
     39  O         27.2620   19.1450   35.9100 O.2    81  GLY81      -0.2863
     40  N         27.5380   16.4990   33.5470 N.3    83  CYS83      -0.1221
     41  CA        28.2440   15.8730   32.4250 C.3    83  CYS83       0.1808
     42  C         29.3030   14.8850   32.8690 C.2    83  CYS83       0.2601
     43  O         29.4880   13.8550   32.2330 O.2    83  CYS83      -0.2717
     44  CB        28.9140   16.9250   31.5580 C.3    83  CYS83       0.0970
     45  SG        29.9710   18.0930   32.4580 S.3    83  CYS83      -0.0800
     46  N         29.9610   15.2060   33.9840 N.am   84  TRP84      -0.1976
     47  CA        31.0100   14.3810   34.5780 C.3    84  TRP84       0.1640
     48  C         30.5110   12.9800   34.9290 C.2    84  TRP84       0.2290
     49  O         31.1570   11.9800   34.6160 O.2    84  TRP84      -0.2864
     50  CB        31.5990   15.0860   35.8120 C.3    84  TRP84       0.0576
     51  CG        30.6130   15.3760   36.9270 C.ar   84  TRP84       0.0006
     52  CD1       29.7650   16.4400   37.0050 C.ar   84  TRP84       0.0946
     53  CD2       30.3420   14.5590   38.0800 C.ar   84  TRP84       0.0152
     54  NE1       28.9680   16.3360   38.1230 N.ar   84  TRP84      -0.2442
     55  CE2       29.2940   15.1920   38.8010 C.ar   84  TRP84       0.0810
     56  CE3       30.8710   13.3430   38.5680 C.ar   84  TRP84       0.0012
     57  CZ2       28.7540   14.6500   39.9950 C.ar   84  TRP84       0.0191
     58  CZ3       30.3340   12.7950   39.7600 C.ar   84  TRP84       0.0001
     59  CH2       29.2810   13.4580   40.4570 C.ar   84  TRP84       0.0015
     60  N         25.6690   19.1400   40.0150 N.3   174  SER174     -0.1202
     61  CA        26.0800   20.1900   39.0750 C.3   174  SER174      0.2020
     62  C         27.5080   20.6340   39.3550 C.2   174  SER174      0.2619
     63  O         27.7860   21.2070   40.4070 O.2   174  SER174     -0.2717
     64  CB        25.1410   21.3880   39.1560 C.3   174  SER174      0.2103
     65  OG        24.3780   21.4940   37.9740 O.3   174  SER174     -0.2182
     66  N         28.4110   20.3380   38.4200 N.am  175  GLY175     -0.1942
     67  CA        29.8120   20.6860   38.5840 C.3   175  GLY175      0.2014
     68  C         30.5650   19.6080   39.3460 C.2   175  GLY175      0.2639
     69  O         30.3380   19.4140   40.5460 O.2   175  GLY175     -0.2714
     70  N         31.4340   18.8870   38.6440 N.am  176  GLY176     -0.1939
     71  CA        32.2090   17.8350   39.2790 C.3   176  GLY176      0.2014
     72  C         33.3350   17.3400   38.4000 C.2   176  GLY176      0.2639
     73  O         33.6600   17.9600   37.3850 O.2   176  GLY176     -0.2714
     74  N         33.8820   16.1840   38.7630 N.am  177  CYS177     -0.1953
     75  CA        34.9890   15.5820   38.0350 C.3   177  CYS177      0.1843
     76  C         34.6610   14.1460   37.6630 C.2   177  CYS177      0.2626
     77  O         34.2540   13.3530   38.5190 O.2   177  CYS177     -0.2714
     78  CB        36.2440   15.6180   38.9000 C.3   177  CYS177      0.0997
     79  SG        37.7290   15.0310   38.1330 S.3   177  CYS177     -0.0797
     80  N         34.8960   13.8180   36.3880 N.am  178  THR178     -0.1950
     81  CA        34.6370   12.4910   35.8130 C.3   178  THR178      0.1897
     82  C         35.3180   11.3840   36.6110 C.2   178  THR178      0.2313
     83  O         34.7480   10.3080   36.8090 O.2   178  THR178     -0.2863
     84  CB        35.0820   12.4400   34.3380 C.3   178  THR178      0.1794
     85  OG1       34.7000   13.6570   33.6930 O.3   178  THR178     -0.2208
     86  CG2       34.3970   11.3080   33.6060 C.3   178  THR178      0.0378
     87  N         45.3550   11.3440   35.6940 N.3   192  TRP192     -0.1241
     88  CA        45.1840   12.5100   34.8260 C.3   192  TRP192      0.1605
     89  C         46.3850   12.6960   33.9110 C.2   192  TRP192      0.2264
     90  O         47.5230   12.4520   34.3140 O.2   192  TRP192     -0.2867
     91  CB        44.9990   13.7880   35.6500 C.3   192  TRP192      0.0550
     92  CG        43.6590   13.9610   36.3360 C.ar  192  TRP192      0.0003
     93  CD1       42.6610   13.0310   36.4740 C.ar  192  TRP192      0.0946
     94  CD2       43.1930   15.1440   36.9940 C.ar  192  TRP192      0.0152
     95  NE1       41.6060   13.5600   37.1770 N.ar  192  TRP192     -0.2442
     96  CE2       41.8990   14.8550   37.5110 C.ar  192  TRP192      0.0810
     97  CE3       43.7420   16.4290   37.2040 C.ar  192  TRP192      0.0012
     98  CZ2       41.1380   15.8050   38.2320 C.ar  192  TRP192      0.0191
     99  CZ3       42.9840   17.3850   37.9280 C.ar  192  TRP192      0.0001
    100  CH2       41.6940   17.0570   38.4310 C.ar  192  TRP192      0.0015
    101  N         38.3880   16.3810   28.4770 N.3   219  SER219     -0.1202
    102  CA        37.8130   17.7240   28.5770 C.3   219  SER219      0.2020
    103  C         38.7800   18.8290   28.1680 C.2   219  SER219      0.2619
    104  O         39.9820   18.5960   28.0130 O.2   219  SER219     -0.2717
    105  CB        37.3440   17.9900   30.0080 C.3   219  SER219      0.2103
    106  OG        38.3910   17.7510   30.9360 O.3   219  SER219     -0.2182
    107  N         38.2190   20.0180   27.9420 N.am  220  ILE220     -0.1965
    108  CA        38.9820   21.2150   27.5900 C.3   220  ILE220      0.1727
    109  C         38.8720   22.1050   28.8300 C.2   220  ILE220      0.2616
    110  O         37.7680   22.4700   29.2430 O.2   220  ILE220     -0.2715
    111  CB        38.3830   21.9790   26.3690 C.3   220  ILE220      0.0290
    112  CG1       38.2570   21.0520   25.1540 C.3   220  ILE220      0.0022
    113  CG2       39.2700   23.1920   26.0140 C.3   220  ILE220      0.0023
    114  CD1       37.4870   21.6430   23.9920 C.3   220  ILE220      0.0001
    115  N         40.0200   22.4420   29.4130 N.am  221  ASN221     -0.1958
    116  CA        40.0870   23.2770   30.6130 C.3   221  ASN221      0.1819
    117  C         39.7110   24.7340   30.3690 C.2   221  ASN221      0.2621
    118  O         39.8570   25.2530   29.2570 O.2   221  ASN221     -0.2715
    119  CB        41.4830   23.1960   31.2520 C.3   221  ASN221      0.1195
    120  CG        41.6830   21.9290   32.0720 C.2   221  ASN221      0.2630
    121  OD1       42.3170   20.9700   31.6230 O.2   221  ASN221     -0.2716
    122  ND2       41.1430   21.9230   33.2870 N.am  221  ASN221     -0.0877
    123  N         39.1400   25.3500   31.4000 N.am  222  ILE222     -0.1977
    124  CA        38.7340   26.7530   31.3670 C.3   222  ILE222      0.1596
    125  C         39.4860   27.5290   32.4500 C.2   222  ILE222      0.2287
    126  O         39.9300   26.9430   33.4430 O.2   222  ILE222     -0.2864
    127  CB        37.1930   26.9340   31.5650 C.3   222  ILE222      0.0276
    128  CG1       36.6810   26.0920   32.7450 C.3   222  ILE222      0.0022
    129  CG2       36.4600   26.6140   30.2670 C.3   222  ILE222      0.0022
    130  CD1       35.3380   26.5350   33.2910 C.3   222  ILE222      0.0001
    131  N         32.3780   28.7290   30.7720 N.3   228  LEU228     -0.1231
    132  CA        31.9090   27.3900   31.1310 C.3   228  LEU228      0.1693
    133  C         30.7730   27.0180   30.1750 C.2   228  LEU228      0.2591
    134  O         29.8490   27.8080   29.9530 O.2   228  LEU228     -0.2718
    135  CB        31.4570   27.3760   32.5960 C.3   228  LEU228      0.0284
    136  CG        31.0080   26.1300   33.3700 C.3   228  LEU228      0.0019
    137  CD1       31.8980   24.9080   33.1470 C.3   228  LEU228      0.0001
    138  CD2       30.9790   26.5020   34.8480 C.3   228  LEU228      0.0001
    139  N         30.9010   25.8290   29.5770 N.am  229  GLU229     -0.1979
    140  CA        29.9730   25.2710   28.5780 C.3   229  GLU229      0.1602
    141  C         29.9870   26.0470   27.2560 C.2   229  GLU229      0.2287
    142  O         29.0840   25.9090   26.4240 O.2   229  GLU229     -0.2864
    143  CB        28.5450   25.0940   29.1180 C.3   229  GLU229      0.0415
    144  CG        28.4160   23.9950   30.1530 C.3   229  GLU229      0.1163
    145  CD        27.0240   23.9140   30.7270 C.2   229  GLU229      0.3649
    146  OE1       26.2150   23.1190   30.2040 O.co2 229  GLU229     -0.2457
    147  OE2       26.7400   24.6490   31.6970 O.co2 229  GLU229     -0.2457
    148  N         34.9720   23.0140   29.3130 N.3   239  GLY239     -0.1210
    149  CA        34.6170   22.7710   30.7160 C.3   239  GLY239      0.1956
    150  C         33.4850   21.7660   30.8230 C.2   239  GLY239      0.2612
    151  O         32.6250   21.8510   31.7010 O.2   239  GLY239     -0.2717
    152  N         33.5250   20.7990   29.9130 N.am  240  HIS240     -0.1961
    153  CA        32.5010   19.7800   29.7700 C.3   240  HIS240      0.1787
    154  C         33.1660   18.4220   29.5960 C.2   240  HIS240      0.2620
    155  O         34.1110   18.2780   28.8200 O.2   240  HIS240     -0.2715
    156  CB        31.6820   20.1660   28.5310 C.3   240  HIS240      0.0785
    157  CG        30.5750   19.2240   28.1820 C.ar  240  HIS240      0.0821
    158  ND1       29.4210   19.1240   28.9250 N.ar  240  HIS240     -0.2267
    159  CD2       30.4240   18.3810   27.1330 C.ar  240  HIS240      0.1154
    160  CE1       28.6060   18.2610   28.3450 C.ar  240  HIS240      0.1986
    161  NE2       29.1910   17.7960   27.2570 N.ar  240  HIS240     -0.2212
    162  N         32.6420   17.4230   30.3000 N.am  241  ALA241     -0.1977
    163  CA        33.1890   16.0760   30.2400 C.3   241  ALA241      0.1597
    164  C         32.6900   15.2740   29.0610 C.2   241  ALA241      0.2287
    165  O         31.5000   15.2620   28.7820 O.2   241  ALA241     -0.2864
    166  CB        32.8780   15.3380   31.5050 C.3   241  ALA241      0.0319
    167  N         42.8150   17.7430   28.8720 N.3   315  LYS315     -0.1245
    168  CA        42.8960   16.7470   29.9360 C.3   315  LYS315      0.1561
    169  C         42.2860   15.4110   29.5400 C.2   315  LYS315      0.2260
    170  O         41.2310   15.3660   28.9170 O.2   315  LYS315     -0.2867
    171  CB        42.2310   17.2650   31.2250 C.3   315  LYS315      0.0271
    172  CG        42.4260   16.3570   32.4450 C.3   315  LYS315      0.0035
    173  CD        42.1400   17.0670   33.7550 C.3   315  LYS315      0.0206
    174  CE        40.6660   17.1060   34.0820 C.3   315  LYS315      0.1093
    175  NZ        40.4600   17.6720   35.4440 N.3   315  LYS315     -0.1314
    176  N         41.4510   11.5800   31.2960 N.3   317  GLU317     -0.1245
    177  CA        41.2950   10.8700   32.5670 C.3   317  GLU317      0.1567
    178  C         41.1430    9.3750   32.3010 C.2   317  GLU317      0.2260
    179  O         40.2580    8.9740   31.5510 O.2   317  GLU317     -0.2867
    180  CB        40.0680   11.4090   33.3140 C.3   317  GLU317      0.0388
    181  CG        40.1520   12.9000   33.6530 C.3   317  GLU317      0.1160
    182  CD        38.9280   13.4240   34.3630 C.2   317  GLU317      0.3649
    183  OE1       38.3250   14.4040   33.8820 O.co2 317  GLU317     -0.2457
    184  OE2       38.5620   12.8590   35.4050 O.co2 317  GLU317     -0.2457
@<TRIPOS>BOND
     1   114   112    1
     2   112   111    1
     3   113   111    1
     4   111   108    1
     5   142   141    2
     6   159   161   ar
     7   159   157   ar
     8   141   140    1
     9   161   160   ar
    10   108   107    1
    11   108   109    1
    12   107   103   am
    13   104   103    2
    14   103   102    1
    15   157   156    1
    16   157   158   ar
    17   160   158   ar
    18    22    21    2
    19   101   102    1
    20    19    20    1
    21   156   153    1
    22   102   105    1
    23   140   143    1
    24   140   139    1
    25   165   164    2
    26   155   154    2
    27   109   110    2
    28   109   115   am
    29   167   168    1
    30   170   169    2
    31   164   163    1
    32   143   144    1
    33   118   117    2
    34   148   149    1
    35   115   116    1
    36    21    20    1
    37   169   168    1
    38    20    23    1
    39    23    24    1
    40   139   133   am
    41   154   153    1
    42   154   162   am
    43   153   152    1
    44   152   150   am
    45   168   171    1
    46   134   133    2
    47   105   106    1
    48   144   145    1
    49   133   132    1
    50   146   145   ar
    51   163   162    1
    52   163   166    1
    53    26    25    2
    54   129   127    1
    55   117   116    1
    56   117   123   am
    57   116   119    1
    58   149   150    1
    59   145   147   ar
    60   131   132    1
    61    25    24    1
    62    25    27   am
    63   150   151    2
    64   132   135    1
    65   171   172    1
    66   119   120    1
    67   176   177    1
    68   124   123    1
    69   124   127    1
    70   124   125    1
    71   179   178    2
    72    44    41    1
    73    44    45    1
    74   127   128    1
    75   121   120    2
    76   120   122   am
    77    43    42    2
    78   178   177    1
    79    41    42    1
    80    41    40    1
    81   172   173    1
    82   125   126    2
    83   177   180    1
    84   135   136    1
    85   128   130    1
    86    42    46   am
    87   137   136    1
    88   180   181    1
    89   136   138    1
    90    31    30    2
    91    86    84    1
    92   181   182    1
    93    85    84    1
    94   173   174    1
    95   183   182   ar
    96    28    29    1
    97    16    15    1
    98    16    17    1
    99    89    90    2
   100    89    88    1
   101    46    47    1
   102   174   175    1
   103    15    14    1
   104    84    81    1
   105   182   184   ar
   106    30    29    1
   107    30    36   am
   108    47    48    1
   109    47    50    1
   110    49    48    2
   111    18    17    1
   112    88    91    1
   113    88    87    1
   114    37    36    1
   115    37    38    1
   116    29    32    1
   117    11    14    1
   118    11    10    1
   119    11    12    1
   120    13    12    2
   121    38    39    2
   122    91    92    1
   123    50    51    1
   124    81    80    1
   125    81    82    1
   126    32    33    1
   127    92    93   ar
   128    92    94   ar
   129    80    76   am
   130    93    95   ar
   131    82    83    2
   132     9     7   ar
   133    51    52   ar
   134    51    53   ar
   135    94    97   ar
   136    94    96   ar
   137    52    54   ar
   138    33    35    1
   139    33    34    1
   140    95    96   ar
   141    97    99   ar
   142    73    72    2
   143    96    98   ar
   144     7     6    1
   145     7     8   ar
   146    76    75    1
   147    76    77    2
   148    99   100   ar
   149    65    64    1
   150    75    74    1
   151    75    78    1
   152     6     5    1
   153    53    56   ar
   154    53    55   ar
   155    54    55   ar
   156    79    78    1
   157    98   100   ar
   158    72    74   am
   159    72    71    1
   160    66    67    1
   161    66    62   am
   162    56    58   ar
   163    67    68    1
   164    70    71    1
   165    70    68   am
   166     4     3    2
   167    55    57   ar
   168    61    64    1
   169    61    62    1
   170    61    60    1
   171    68    69    2
   172    62    63    2
   173     5     2    1
   174    58    59   ar
   175     3     2    1
   176    57    59   ar
   177     2     1    1
