@<TRIPOS>MOLECULE
tmp/1tlcA00.pdb
 183 178 0 0 0
SMALL
GASTEIGER

@<TRIPOS>ATOM
      1  N          9.1490   27.8450   25.9690 N.3    21  ARG21      -0.1231
      2  CA         8.6780   27.0120   24.8080 C.3    21  ARG21       0.1694
      3  C          7.5410   26.0670   25.1210 C.2    21  ARG21       0.2592
      4  O          6.5910   25.7490   24.3750 O.2    21  ARG21      -0.2718
      5  CB         9.9930   26.3820   24.3550 C.3    21  ARG21       0.0321
      6  CG        10.0740   25.2530   23.3590 C.3    21  ARG21       0.0489
      7  CD        11.4060   24.5870   23.4830 C.3    21  ARG21       0.2205
      8  NE        11.5630   23.8100   24.6560 N.pl3  21  ARG21      -0.0865
      9  CZ        11.0230   22.6370   24.9490 C.cat  21  ARG21       0.5346
     10  NH1       10.0740   22.0710   24.1950 N.pl3  21  ARG21       0.1354
     11  NH2       11.4380   21.9150   26.0140 N.pl3  21  ARG21       0.1354
     12  N          7.6280   25.5540   26.3760 N.am   22  THR22      -0.1953
     13  CA         6.7020   24.5590   26.9810 C.3    22  THR22       0.1897
     14  C          5.3270   25.1390   27.3230 C.2    22  THR22       0.2313
     15  O          4.3210   24.3900   27.4530 O.2    22  THR22      -0.2863
     16  CB         7.4150   23.6230   28.0410 C.3    22  THR22       0.1794
     17  OG1        7.4160   24.2610   29.3530 O.3    22  THR22      -0.2208
     18  CG2        8.9360   23.3180   27.8490 C.3    22  THR22       0.0378
     19  N         22.4250    6.4860   33.1980 N.3    58  GLU58      -0.1245
     20  CA        22.4000    7.4920   32.1490 C.3    58  GLU58       0.1567
     21  C         23.8110    7.7610   31.7330 C.2    58  GLU58       0.2260
     22  O         24.0530    7.8940   30.5180 O.2    58  GLU58      -0.2867
     23  CB        21.7240    8.7690   32.5810 C.3    58  GLU58       0.0388
     24  CG        21.4700    9.7230   31.4420 C.3    58  GLU58       0.1160
     25  CD        21.1350   11.1140   31.8550 C.2    58  GLU58       0.3649
     26  OE1       21.6160   11.5320   32.9170 O.co2  58  GLU58      -0.2457
     27  OE2       20.5030   11.7710   31.1000 O.co2  58  GLU58      -0.2457
     28  N         13.8310   10.1230   29.4040 N.3    80  TRP80      -0.1241
     29  CA        14.0330   10.3860   28.0020 C.3    80  TRP80       0.1605
     30  C         12.9170    9.8410   27.1740 C.2    80  TRP80       0.2264
     31  O         12.8880   10.2250   26.0100 O.2    80  TRP80      -0.2867
     32  CB        15.3570    9.7400   27.6220 C.3    80  TRP80       0.0550
     33  CG        16.5590   10.5260   28.0150 C.ar   80  TRP80       0.0003
     34  CD1       17.4510   10.2520   28.9900 C.ar   80  TRP80       0.0946
     35  CD2       16.9920   11.7650   27.4070 C.ar   80  TRP80       0.0152
     36  NE1       18.4440   11.1930   29.0000 N.ar   80  TRP80      -0.2442
     37  CE2       18.1730   12.1450   28.0470 C.ar   80  TRP80       0.0810
     38  CE3       16.5060   12.5420   26.3650 C.ar   80  TRP80       0.0012
     39  CZ2       18.8880   13.2640   27.6580 C.ar   80  TRP80       0.0191
     40  CZ3       17.2130   13.6670   25.9630 C.ar   80  TRP80       0.0001
     41  CH2       18.4050   14.0090   26.5730 C.ar   80  TRP80       0.0015
     42  N         11.0020   12.0930   24.5840 N.3    83  TRP83      -0.1241
     43  CA        11.8080   12.7730   23.5870 C.3    83  TRP83       0.1605
     44  C         12.0390   11.8950   22.3460 C.2    83  TRP83       0.2264
     45  O         12.2030   12.3050   21.1610 O.2    83  TRP83      -0.2867
     46  CB        12.9300   13.4860   24.3550 C.3    83  TRP83       0.0550
     47  CG        12.4680   14.7780   24.9390 C.ar   83  TRP83       0.0003
     48  CD1       12.2790   16.0220   24.3080 C.ar   83  TRP83       0.0946
     49  CD2       12.0890   14.9980   26.2980 C.ar   83  TRP83       0.0152
     50  NE1       11.8070   16.9680   25.1940 N.ar   83  TRP83      -0.2442
     51  CE2       11.7030   16.3530   26.4100 C.ar   83  TRP83       0.0810
     52  CE3       12.0910   14.1690   27.4110 C.ar   83  TRP83       0.0012
     53  CZ2       11.2960   16.8940   27.6380 C.ar   83  TRP83       0.0191
     54  CZ3       11.6160   14.6970   28.6290 C.ar   83  TRP83       0.0001
     55  CH2       11.2000   16.0540   28.7670 C.ar   83  TRP83       0.0015
     56  N         23.9720   13.7730   23.1790 N.3    94  TYR94      -0.1241
     57  CA        25.2070   13.6120   23.9240 C.3    94  TYR94       0.1605
     58  C         26.2240   12.5400   23.6090 C.2    94  TYR94       0.2264
     59  O         27.4180   12.7330   23.3010 O.2    94  TYR94      -0.2867
     60  CB        24.7110   13.3210   25.3780 C.3    94  TYR94       0.0534
     61  CG        23.9210   14.5010   25.9430 C.ar   94  TYR94      -0.0201
     62  CD1       24.5500   15.7280   26.2900 C.ar   94  TYR94      -0.0009
     63  CD2       22.5730   14.3700   26.1450 C.ar   94  TYR94      -0.0009
     64  CE1       23.7910   16.7620   26.7990 C.ar   94  TYR94       0.0417
     65  CE2       21.8280   15.4180   26.6700 C.ar   94  TYR94       0.0417
     66  CZ        22.4120   16.6140   27.0230 C.ar   94  TYR94       0.1957
     67  OH        21.5810   17.6220   27.5950 O.3    94  TYR94      -0.2866
     68  N         16.4750   16.8100   21.4870 N.3   143  LEU143     -0.1231
     69  CA        16.6490   17.9640   22.3990 C.3   143  LEU143      0.1693
     70  C         18.0770   18.4700   22.2010 C.2   143  LEU143      0.2591
     71  O         19.0110   17.6350   22.1780 O.2   143  LEU143     -0.2718
     72  CB        16.2880   17.3580   23.7610 C.3   143  LEU143      0.0284
     73  CG        16.3490   18.2640   24.9620 C.3   143  LEU143      0.0019
     74  CD1       15.3110   19.3820   24.7910 C.3   143  LEU143      0.0001
     75  CD2       16.2040   17.4580   26.2260 C.3   143  LEU143      0.0001
     76  N         18.3190   19.7620   22.0480 N.am  144  ALA144     -0.1980
     77  CA        19.6990   20.3640   21.9030 C.3   144  ALA144      0.1597
     78  C         20.3550   20.1740   23.2700 C.2   144  ALA144      0.2287
     79  O         19.6640   20.4030   24.2440 O.2   144  ALA144     -0.2864
     80  CB        19.4040   21.8740   21.7100 C.3   144  ALA144      0.0319
     81  N         21.7310   20.2040   26.9790 N.3   146  CYS146     -0.1221
     82  CA        21.6040   21.1980   28.0340 C.3   146  CYS146      0.1808
     83  C         22.9500   21.3710   28.7070 C.2   146  CYS146      0.2601
     84  O         23.4270   22.4900   28.8200 O.2   146  CYS146     -0.2717
     85  CB        20.5510   20.9440   29.0380 C.3   146  CYS146      0.0970
     86  SG        18.9860   21.0400   28.2400 S.3   146  CYS146     -0.0800
     87  N         23.5720   20.2800   29.0490 N.am  147  HIS147     -0.1975
     88  CA        24.9390   20.1950   29.6600 C.3   147  HIS147      0.1656
     89  C         25.7890   20.0750   28.4040 C.2   147  HIS147      0.2291
     90  O         26.0380   19.0110   27.8510 O.2   147  HIS147     -0.2864
     91  CB        25.1050   19.1000   30.7070 C.3   147  HIS147      0.0771
     92  CG        24.5550   17.7450   30.4610 C.ar  147  HIS147      0.0820
     93  ND1       25.3070   16.6360   30.0550 N.ar  147  HIS147     -0.2267
     94  CD2       23.2380   17.3530   30.6170 C.ar  147  HIS147      0.1154
     95  CE1       24.4550   15.6610   29.9600 C.ar  147  HIS147      0.1986
     96  NE2       23.2040   16.0180   30.2730 N.ar  147  HIS147     -0.2212
     97  N         26.3200   24.7700   31.3960 N.3   165  GLN165     -0.1231
     98  CA        24.9680   24.2790   31.1390 C.3   165  GLN165      0.1698
     99  C         24.1190   25.3780   30.5780 C.2   165  GLN165      0.2592
    100  O         23.8800   26.3150   31.3940 O.2   165  GLN165     -0.2718
    101  CB        24.4570   23.7040   32.4360 C.3   165  GLN165      0.0381
    102  CG        23.3610   22.7400   32.1100 C.3   165  GLN165      0.0905
    103  CD        22.9660   21.8530   33.2340 C.2   165  GLN165      0.2608
    104  OE1       23.6250   21.4210   34.1180 O.2   165  GLN165     -0.2717
    105  NE2       21.7280   21.5090   33.1840 N.am  165  GLN165     -0.0878
    106  N         23.7280   25.3180   29.3470 N.am  166  ARG166     -0.1966
    107  CA        22.9580   26.4070   28.7870 C.3   166  ARG166      0.1729
    108  C         21.5530   26.5670   29.3380 C.2   166  ARG166      0.2617
    109  O         21.1110   27.7420   29.3340 O.2   166  ARG166     -0.2715
    110  CB        22.8020   26.2940   27.2620 C.3   166  ARG166      0.0348
    111  CG        22.1020   25.1270   26.7340 C.3   166  ARG166      0.0492
    112  CD        21.3110   25.3400   25.4950 C.3   166  ARG166      0.2205
    113  NE        20.4160   24.1860   25.3000 N.pl3 166  ARG166     -0.0865
    114  CZ        19.1050   24.1480   25.4750 C.cat 166  ARG166      0.5346
    115  NH1       18.4820   25.2320   25.9180 N.pl3 166  ARG166      0.1354
    116  NH2       18.3700   23.0790   25.2370 N.pl3 166  ARG166      0.1354
    117  N         20.8660   25.5440   29.8240 N.am  167  SER167     -0.1936
    118  CA        19.4730   25.5890   30.2770 C.3   167  SER167      0.2055
    119  C         19.3460   24.5830   31.4270 C.2   167  SER167      0.2643
    120  O         19.8820   23.4670   31.3020 O.2   167  SER167     -0.2714
    121  CB        18.5670   25.1240   29.1280 C.3   167  SER167      0.2130
    122  OG        17.2600   25.1320   29.6130 O.3   167  SER167     -0.2179
    123  N         18.7890   25.0110   32.5320 N.am  168  CYS168     -0.1953
    124  CA        18.7630   24.1530   33.7230 C.3   168  CYS168      0.1843
    125  C         17.4700   24.2630   34.4620 C.2   168  CYS168      0.2625
    126  O         17.2220   25.3860   34.9320 O.2   168  CYS168     -0.2714
    127  CB        19.9030   24.6310   34.6610 C.3   168  CYS168      0.0997
    128  SG        20.0230   23.7110   36.1210 S.3   168  CYS168     -0.0797
    129  N         16.7730   23.1530   34.5460 N.am  169  ASP169     -0.1971
    130  CA        15.5140   23.0240   35.3230 C.3   169  ASP169      0.1709
    131  C         16.1080   22.7420   36.6820 C.2   169  ASP169      0.2293
    132  O         16.6570   21.6490   36.8480 O.2   169  ASP169     -0.2864
    133  CB        14.7860   21.8870   34.6090 C.3   169  ASP169      0.1436
    134  CG        13.7240   21.3690   35.5530 C.2   169  ASP169      0.3671
    135  OD1       13.7020   21.6970   36.7290 O.co2 169  ASP169     -0.2456
    136  OD2       12.9020   20.5900   35.0700 O.co2 169  ASP169     -0.2456
    137  N         16.1000   18.3570   37.1560 N.3   173  GLY173     -0.1210
    138  CA        17.3830   17.9270   36.6520 C.3   173  GLY173      0.1956
    139  C         18.7120   18.1490   37.2850 C.2   173  GLY173      0.2611
    140  O         19.5600   17.2240   37.1160 O.2   173  GLY173     -0.2717
    141  N         19.0060   19.2920   37.9100 N.am  174  LEU174     -0.1979
    142  CA        20.2580   19.6150   38.4910 C.3   174  LEU174      0.1596
    143  C         20.8700   18.5930   39.4490 C.2   174  LEU174      0.2287
    144  O         22.0860   18.3420   39.2680 O.2   174  LEU174     -0.2864
    145  CB        20.2980   21.0620   38.9100 C.3   174  LEU174      0.0297
    146  CG        21.6370   21.6260   39.4120 C.3   174  LEU174      0.0022
    147  CD1       22.6880   21.4370   38.3120 C.3   174  LEU174      0.0001
    148  CD2       21.4790   23.0810   39.8050 C.3   174  LEU174      0.0001
    149  N         22.5200   16.0930   37.0770 N.3   177  ASN177     -0.1240
    150  CA        23.7060   16.5370   36.3990 C.3   177  ASN177      0.1653
    151  C         24.8670   16.7360   37.3080 C.2   177  ASN177      0.2266
    152  O         25.9810   16.5620   36.8540 O.2   177  ASN177     -0.2867
    153  CB        23.4590   17.8640   35.7230 C.3   177  ASN177      0.1155
    154  CG        22.2250   17.7450   34.8320 C.2   177  ASN177      0.2627
    155  OD1       21.3910   18.6390   35.0010 O.2   177  ASN177     -0.2716
    156  ND2       22.0680   16.8580   33.8890 N.am  177  ASN177     -0.0877
    157  N         16.6370   27.8750   35.8860 N.3   207  HIS207     -0.1241
    158  CA        15.2510   28.2450   36.2700 C.3   207  HIS207      0.1621
    159  C         14.4940   27.2670   37.0960 C.2   207  HIS207      0.2264
    160  O         14.8650   26.0930   37.2370 O.2   207  HIS207     -0.2867
    161  CB        14.5050   28.3970   34.9030 C.3   207  HIS207      0.0745
    162  CG        14.6640   27.2960   33.9050 C.ar  207  HIS207      0.0817
    163  ND1       15.6460   27.2150   32.9410 N.ar  207  HIS207     -0.2268
    164  CD2       13.8450   26.2260   33.7000 C.ar  207  HIS207      0.1154
    165  CE1       15.4430   26.1370   32.2870 C.ar  207  HIS207      0.1986
    166  NE2       14.3520   25.5070   32.6950 N.ar  207  HIS207     -0.2212
    167  N         10.5160   26.0410   37.2950 N.3   209  TYR209     -0.1241
    168  CA         9.2770   26.0960   36.5530 C.3   209  TYR209      0.1605
    169  C          8.2680   26.6100   37.5830 C.2   209  TYR209      0.2264
    170  O          8.3580   26.3550   38.7720 O.2   209  TYR209     -0.2867
    171  CB         8.9570   24.7090   36.0130 C.3   209  TYR209      0.0534
    172  CG         9.6110   24.5070   34.6520 C.ar  209  TYR209     -0.0201
    173  CD1        9.0660   25.1230   33.5450 C.ar  209  TYR209     -0.0009
    174  CD2       10.7570   23.7080   34.4900 C.ar  209  TYR209     -0.0009
    175  CE1        9.6310   24.9660   32.2630 C.ar  209  TYR209      0.0417
    176  CE2       11.3230   23.5590   33.2290 C.ar  209  TYR209      0.0417
    177  CZ        10.7270   24.1500   32.1370 C.ar  209  TYR209      0.1957
    178  OH        11.2560   24.0430   30.9080 O.3   209  TYR209     -0.2866
    179  N          8.0590   19.5260   32.6110 N.3   263  ALA263     -0.1245
    180  CA         7.5030   20.3680   31.5520 C.3   263  ALA263      0.1562
    181  C          8.0940   19.7820   30.2370 C.2   263  ALA263      0.2260
    182  O          9.2790   19.4820   30.0120 O.2   263  ALA263     -0.2867
    183  CB         7.8750   21.8250   31.6180 C.3   263  ALA263      0.0290
@<TRIPOS>BOND
     1    45    44    2
     2    68    69    1
     3    80    77    1
     4    77    76    1
     5    77    78    1
     6    76    70   am
     7    71    70    2
     8    70    69    1
     9    44    43    1
    10    69    72    1
    11    56    57    1
    12    78    79    2
    13    59    58    2
    14     6     7    1
    15     6     5    1
    16     7     8    1
    17    43    46    1
    18    43    42    1
    19    58    57    1
    20    72    73    1
    21    57    60    1
    22    10     9    1
    23    48    47   ar
    24    48    50   ar
    25    46    47    1
    26     5     2    1
    27     4     3    2
    28     8     9    2
    29    74    73    1
    30     2     3    1
    31     2     1    1
    32    47    49   ar
    33     9    11    1
    34    73    75    1
    35     3    12   am
    36    50    51   ar
    37   116   114    1
    38   113   114    2
    39   113   112    1
    40    60    61    1
    41   114   115    1
    42   112   111    1
    43    61    63   ar
    44    61    62   ar
    45    40    38   ar
    46    40    41   ar
    47    31    30    2
    48    63    65   ar
    49    62    64   ar
    50    49    51   ar
    51    49    52   ar
    52    38    35   ar
    53    12    13    1
    54    51    53   ar
    55    41    39   ar
    56    65    66   ar
    57   111   110    1
    58    64    66   ar
    59    81    82    1
    60    13    14    1
    61    13    16    1
    62    66    67    1
    63    30    29    1
    64   110   107    1
    65    14    15    2
    66    35    33   ar
    67    35    37   ar
    68    52    54   ar
    69    32    29    1
    70    32    33    1
    71    53    55   ar
    72    39    37   ar
    73    18    16    1
    74    90    89    2
    75    29    28    1
    76    33    34   ar
    77    82    83    1
    78    82    85    1
    79    16    17    1
    80    37    36   ar
    81    86    85    1
    82    89    88    1
    83    54    55   ar
    84    83    84    2
    85    83    87   am
    86   107   108    1
    87   107   106    1
    88    34    36   ar
    89    87    88    1
    90   121   122    1
    91   121   118    1
    92   109   108    2
    93   108   117   am
    94   106    99   am
    95    88    91    1
    96   117   118    1
    97    95    93   ar
    98    95    96   ar
    99   182   181    2
   100    93    92   ar
   101   181   180    1
   102    96    94   ar
   103   118   119    1
   104    92    94   ar
   105    92    91    1
   106    22    21    2
   107    99    98    1
   108    99   100    2
   109   178   177    1
   110    27    25   ar
   111    98    97    1
   112    98   101    1
   113   120   119    2
   114   119   123   am
   115    24    25    1
   116    24    23    1
   117   180   183    1
   118   180   179    1
   119    21    20    1
   120    25    26   ar
   121   102   101    1
   122   102   103    1
   123   177   175   ar
   124   177   176   ar
   125    20    23    1
   126    20    19    1
   127   175   173   ar
   128   165   166   ar
   129   165   163   ar
   130   123   124    1
   131   166   164   ar
   132   163   162   ar
   133   105   103   am
   134   176   174   ar
   135   103   104    2
   136   173   172   ar
   137   164   162   ar
   138   124   125    1
   139   124   127    1
   140   156   154   am
   141   162   161    1
   142   125   129   am
   143   125   126    2
   144   174   172   ar
   145   129   130    1
   146   133   130    1
   147   133   134    1
   148   172   171    1
   149   127   128    1
   150   154   155    2
   151   154   153    1
   152   161   158    1
   153   136   134   ar
   154   130   131    1
   155   134   135   ar
   156   153   150    1
   157   157   158    1
   158   171   168    1
   159   158   159    1
   160   150   149    1
   161   150   151    1
   162   168   167    1
   163   168   169    1
   164   138   137    1
   165   138   139    1
   166   131   132    2
   167   152   151    2
   168   159   160    2
   169   140   139    2
   170   139   141   am
   171   169   170    2
   172   141   142    1
   173   147   146    1
   174   142   145    1
   175   142   143    1
   176   145   146    1
   177   144   143    2
   178   146   148    1
