@<TRIPOS>MOLECULE
tmp/1tlfC00.pdb
 181 171 0 0 0
SMALL
GASTEIGER

@<TRIPOS>ATOM
      1  N         -3.8390   36.7730   31.6350 N.3     9  SER9       -0.1217
      2  CA        -2.4630   37.1130   31.9740 C.3     9  SER9        0.1889
      3  C         -2.1340   38.3650   31.1770 C.2     9  SER9        0.2288
      4  O         -2.8120   38.6400   30.1930 O.2     9  SER9       -0.2866
      5  CB        -1.5190   35.9390   31.6580 C.3     9  SER9        0.2089
      6  OG        -1.7130   35.3820   30.3660 O.3     9  SER9       -0.2183
      7  N          1.1830   41.1120   26.1870 N.3    13  LEU13      -0.1231
      8  CA         1.6070   40.0960   25.2360 C.3    13  LEU13       0.1693
      9  C          0.4980   40.0240   24.2140 C.2    13  LEU13       0.2592
     10  O         -0.6620   40.2680   24.5310 O.2    13  LEU13      -0.2718
     11  CB         1.8030   38.7730   25.9620 C.3    13  LEU13       0.0284
     12  CG         2.9300   38.9610   26.9940 C.3    13  LEU13       0.0019
     13  CD1        2.9070   37.9100   28.0970 C.3    13  LEU13       0.0001
     14  CD2        4.2450   38.9570   26.2880 C.3    13  LEU13       0.0001
     15  N          0.8270   39.6920   22.9800 N.am   14  HIS14      -0.1962
     16  CA        -0.2060   39.7120   21.9550 C.3    14  HIS14       0.1787
     17  C         -1.2090   38.5840   21.9670 C.2    14  HIS14       0.2620
     18  O         -2.3850   38.8030   21.6550 O.2    14  HIS14      -0.2715
     19  CB         0.4310   39.8630   20.5660 C.3    14  HIS14       0.0785
     20  CG         1.4300   40.9840   20.4600 C.ar   14  HIS14       0.0821
     21  ND1        1.6770   41.8820   21.4780 N.ar   14  HIS14      -0.2267
     22  CD2        2.2590   41.3380   19.4480 C.ar   14  HIS14       0.1154
     23  CE1        2.6090   42.7350   21.1020 C.ar   14  HIS14       0.1986
     24  NE2        2.9790   42.4260   19.8740 N.ar   14  HIS14      -0.2212
     25  N         -0.7610   37.3660   22.2850 N.am   15  ALA15      -0.1964
     26  CA        -1.6830   36.2150   22.3070 C.3    15  ALA15       0.1713
     27  C         -2.8770   36.4310   23.2390 C.2    15  ALA15       0.2458
     28  O         -4.0200   36.3990   22.7680 O.2    15  ALA15      -0.2730
     29  CB        -0.9570   34.9640   22.6490 C.3    15  ALA15       0.0333
     30  N         -2.6340   36.7560   24.5480 N.am   16  PRO16      -0.2727
     31  CA        -3.7380   36.9860   25.4970 C.3    16  PRO16       0.1402
     32  C         -4.7300   38.0210   24.9330 C.2    16  PRO16       0.2269
     33  O         -5.9300   37.7410   24.8000 O.2    16  PRO16      -0.2865
     34  CB        -3.0200   37.5290   26.7240 C.3    16  PRO16       0.0296
     35  CG        -1.7080   36.9200   26.6530 C.3    16  PRO16       0.0237
     36  CD        -1.3480   37.0470   25.2110 C.3    16  PRO16       0.0939
     37  N         -6.7180   36.5860   22.4150 N.3    19  ILE19      -0.1245
     38  CA        -7.6150   35.5870   22.9630 C.3    19  ILE19       0.1561
     39  C         -8.7860   36.3240   23.5680 C.2    19  ILE19       0.2260
     40  O         -9.9150   36.1610   23.1040 O.2    19  ILE19      -0.2867
     41  CB        -6.9260   34.7170   24.0060 C.3    19  ILE19       0.0252
     42  CG1       -5.8920   33.8440   23.3080 C.3    19  ILE19       0.0019
     43  CG2       -7.9630   33.8330   24.7250 C.3    19  ILE19       0.0019
     44  CD1       -4.9730   33.1350   24.2410 C.3    19  ILE19       0.0001
     45  N          0.1310   38.5320   37.6740 N.3    41  ARG41      -0.1245
     46  CA         1.2620   37.7500   37.1740 C.3    41  ARG41       0.1563
     47  C          2.1720   37.1760   38.2510 C.2    41  ARG41       0.2260
     48  O          3.3940   37.3330   38.1910 O.2    41  ARG41      -0.2867
     49  CB         2.0880   38.5730   36.1760 C.3    41  ARG41       0.0307
     50  CG         1.4890   38.6780   34.7740 C.3    41  ARG41       0.0489
     51  CD         1.5780   37.3480   34.0180 C.3    41  ARG41       0.2205
     52  NE         1.2350   37.4910   32.6040 N.pl3  41  ARG41      -0.0865
     53  CZ         1.5790   36.6260   31.6520 C.cat  41  ARG41       0.5346
     54  NH1        2.2790   35.5370   31.9450 N.pl3  41  ARG41       0.1354
     55  NH2        1.2150   36.8510   30.3970 N.pl3  41  ARG41       0.1354
     56  N         -7.6170   32.2840   31.3980 N.3    65  ASN65      -0.1240
     57  CA        -6.4610   32.3290   30.5170 C.3    65  ASN65       0.1653
     58  C         -5.2660   32.8120   31.3240 C.2    65  ASN65       0.2266
     59  O         -4.9540   33.9890   31.3480 O.2    65  ASN65      -0.2867
     60  CB        -6.7450   33.2780   29.3570 C.3    65  ASN65       0.1155
     61  CG        -5.5300   33.5290   28.4770 C.2    65  ASN65       0.2627
     62  OD1       -5.4490   34.5810   27.8220 O.2    65  ASN65      -0.2716
     63  ND2       -4.5900   32.5850   28.4440 N.am   65  ASN65      -0.0877
     64  N         -1.3850   30.9560   33.0420 N.3    67  PRO67      -0.2116
     65  CA        -0.4950   29.8100   33.2360 C.3    67  PRO67       0.1372
     66  C         -0.5140   29.2000   34.6310 C.2    67  PRO67       0.2244
     67  O          0.1460   29.7070   35.5360 O.2    67  PRO67      -0.2868
     68  CB         0.8720   30.4080   32.9380 C.3    67  PRO67       0.0268
     69  CG         0.7180   31.8000   33.4640 C.3    67  PRO67       0.0207
     70  CD        -0.5970   32.1870   32.8730 C.3    67  PRO67       0.0892
     71  N         -7.7160   27.9560   30.1250 N.3    88  LEU88      -0.1231
     72  CA        -7.0990   28.0440   28.8030 C.3    88  LEU88       0.1693
     73  C         -5.5740   27.9520   28.7780 C.2    88  LEU88       0.2592
     74  O         -5.0000   27.9630   27.7010 O.2    88  LEU88      -0.2718
     75  CB        -7.5340   29.3290   28.0540 C.3    88  LEU88       0.0284
     76  CG        -8.9790   29.8730   27.9650 C.3    88  LEU88       0.0019
     77  CD1       -8.9560   31.1050   27.1090 C.3    88  LEU88       0.0001
     78  CD2       -9.9920   28.8840   27.4070 C.3    88  LEU88       0.0001
     79  N         -4.9140   27.8820   29.9350 N.am   89  ASP89      -0.1974
     80  CA        -3.4490   27.8130   29.9570 C.3    89  ASP89       0.1709
     81  C         -2.9540   26.8270   31.0040 C.2    89  ASP89       0.2293
     82  O         -2.3020   27.2110   31.9620 O.2    89  ASP89      -0.2864
     83  CB        -2.8840   29.2040   30.2370 C.3    89  ASP89       0.1436
     84  CG        -1.4290   29.3560   29.8240 C.2    89  ASP89       0.3671
     85  OD1       -0.6770   28.3550   29.8570 O.co2  89  ASP89      -0.2456
     86  OD2       -1.0390   30.5000   29.4710 O.co2  89  ASP89      -0.2456
     87  N         -4.4460   23.9870   22.9430 N.3   101  PHE101     -0.1241
     88  CA        -3.9660   23.6310   21.6100 C.3   101  PHE101      0.1605
     89  C         -3.0100   22.4240   21.6990 C.2   101  PHE101      0.2264
     90  O         -2.3220   22.2070   22.6960 O.2   101  PHE101     -0.2867
     91  CB        -3.2290   24.8380   20.9700 C.3   101  PHE101      0.0534
     92  CG        -4.1180   26.0440   20.7070 C.ar  101  PHE101     -0.0203
     93  CD1       -4.8260   26.1450   19.5330 C.ar  101  PHE101     -0.0042
     94  CD2       -4.2540   27.0560   21.6620 C.ar  101  PHE101     -0.0042
     95  CE1       -5.6570   27.2230   19.3220 C.ar  101  PHE101     -0.0003
     96  CE2       -5.0750   28.1330   21.4630 C.ar  101  PHE101     -0.0003
     97  CZ        -5.7850   28.2240   20.2980 C.ar  101  PHE101     -0.0000
     98  N          2.6950   25.9890   29.5120 N.3   133  SER133     -0.1217
     99  CA         2.8490   25.9340   28.0650 C.3   133  SER133      0.1889
    100  C          4.2940   25.9360   27.5870 C.2   133  SER133      0.2288
    101  O          4.7100   25.0530   26.8440 O.2   133  SER133     -0.2866
    102  CB         2.0470   27.0740   27.4550 C.3   133  SER133      0.2089
    103  OG         0.6930   27.0290   27.9290 O.3   133  SER133     -0.2183
    104  N          6.1500   22.9410   25.6800 N.3   137  ARG137     -0.1245
    105  CA         6.7200   23.1560   24.3230 C.3   137  ARG137      0.1563
    106  C          8.2010   22.7860   24.3300 C.2   137  ARG137      0.2260
    107  O          8.7300   22.1650   23.4070 O.2   137  ARG137     -0.2867
    108  CB         6.5580   24.6150   23.8740 C.3   137  ARG137      0.0307
    109  CG         5.1150   25.0100   23.6520 C.3   137  ARG137      0.0489
    110  CD         4.9170   26.4970   23.4090 C.3   137  ARG137      0.2205
    111  NE         3.4890   26.8290   23.4850 N.pl3 137  ARG137     -0.0865
    112  CZ         2.9880   28.0610   23.4130 C.cat 137  ARG137      0.5346
    113  NH1        3.7940   29.0900   23.2620 N.pl3 137  ARG137      0.1354
    114  NH2        1.6790   28.2680   23.4820 N.pl3 137  ARG137      0.1354
    115  N          8.6910   35.8030   26.8890 N.3   160  TRP160     -0.1241
    116  CA         7.5950   35.9860   25.9080 C.3   160  TRP160      0.1605
    117  C          7.6510   37.3080   25.1040 C.2   160  TRP160      0.2264
    118  O          6.8630   37.5110   24.1730 O.2   160  TRP160     -0.2867
    119  CB         6.1990   35.9240   26.5690 C.3   160  TRP160      0.0550
    120  CG         5.7460   34.6360   27.2010 C.ar  160  TRP160      0.0003
    121  CD1        5.1640   34.5070   28.4150 C.ar  160  TRP160      0.0946
    122  CD2        5.7270   33.3330   26.6100 C.ar  160  TRP160      0.0152
    123  NE1        4.7700   33.2180   28.6190 N.ar  160  TRP160     -0.2442
    124  CE2        5.1080   32.4730   27.5250 C.ar  160  TRP160      0.0810
    125  CE3        6.1680   32.8130   25.3960 C.ar  160  TRP160      0.0012
    126  CZ2        4.9220   31.1240   27.2690 C.ar  160  TRP160      0.0191
    127  CZ3        5.9790   31.4680   25.1430 C.ar  160  TRP160      0.0001
    128  CH2        5.3640   30.6410   26.0740 C.ar  160  TRP160      0.0015
    129  N          7.5250   31.6980   20.9340 N.3   186  ASN186     -0.1240
    130  CA         6.4360   32.5400   20.4340 C.3   186  ASN186      0.1653
    131  C          6.9390   33.4860   19.3680 C.2   186  ASN186      0.2266
    132  O          8.1480   33.5860   19.1610 O.2   186  ASN186     -0.2867
    133  CB         5.6830   33.2990   21.5480 C.3   186  ASN186      0.1155
    134  CG         6.4980   34.3960   22.1860 C.2   186  ASN186      0.2627
    135  OD1        7.7300   34.4060   22.1060 O.2   186  ASN186     -0.2716
    136  ND2        5.8220   35.3030   22.8720 N.am  186  ASN186     -0.0877
    137  N          6.7210   36.8760   19.1370 N.3   188  GLN188     -0.1245
    138  CA         7.3520   38.0810   19.6920 C.3   188  GLN188      0.1566
    139  C          8.8220   37.8960   20.0010 C.2   188  GLN188      0.2260
    140  O          9.6590   38.7050   19.6070 O.2   188  GLN188     -0.2867
    141  CB         6.6130   38.5600   20.9390 C.3   188  GLN188      0.0367
    142  CG         5.3890   39.3910   20.6480 C.3   188  GLN188      0.0905
    143  CD         4.7620   39.9530   21.9040 C.2   188  GLN188      0.2608
    144  OE1        3.6260   39.6270   22.2330 O.2   188  GLN188     -0.2717
    145  NE2        5.4780   40.8260   22.5980 N.am  188  GLN188     -0.0878
    146  N          2.5360   30.5110   17.5710 N.3   214  ASP214     -0.1239
    147  CA         1.2960   31.3060   17.7850 C.3   214  ASP214      0.1674
    148  C          0.5890   31.7740   16.5150 C.2   214  ASP214      0.2266
    149  O         -0.5580   31.4350   16.2420 O.2   214  ASP214     -0.2867
    150  CB         1.5260   32.5880   18.6000 C.3   214  ASP214      0.1410
    151  CG         1.4830   32.3780   20.0800 C.2   214  ASP214      0.3668
    152  OD1        0.9810   31.3430   20.5340 O.co2 214  ASP214     -0.2456
    153  OD2        1.9590   33.2720   20.7950 O.co2 214  ASP214     -0.2456
    154  N         -1.9610   29.1050   15.9990 N.3   231  GLN231     -0.1245
    155  CA        -2.8980   28.6800   17.0240 C.3   231  GLN231      0.1566
    156  C         -4.0560   29.6360   16.7620 C.2   231  GLN231      0.2260
    157  O         -3.8920   30.8490   16.8430 O.2   231  GLN231     -0.2867
    158  CB        -2.3210   28.9270   18.4100 C.3   231  GLN231      0.0367
    159  CG        -1.0040   28.2460   18.6690 C.3   231  GLN231      0.0905
    160  CD        -0.6400   28.2500   20.1430 C.2   231  GLN231      0.2608
    161  OE1       -0.7910   29.2600   20.8320 O.2   231  GLN231     -0.2717
    162  NE2       -0.2000   27.1030   20.6440 N.am  231  GLN231     -0.0878
    163  N         -6.7230   31.6230   17.7740 N.3   233  PHE233     -0.1241
    164  CA        -7.2640   32.1780   19.0020 C.3   233  PHE233      0.1605
    165  C         -8.6780   32.6130   18.7010 C.2   233  PHE233      0.2264
    166  O         -9.3960   33.0810   19.5920 O.2   233  PHE233     -0.2867
    167  CB        -6.3990   33.3260   19.4960 C.3   233  PHE233      0.0534
    168  CG        -4.9450   32.9240   19.7460 C.ar  233  PHE233     -0.0203
    169  CD1       -4.6260   31.9530   20.7040 C.ar  233  PHE233     -0.0042
    170  CD2       -3.9210   33.5110   19.0310 C.ar  233  PHE233     -0.0042
    171  CE1       -3.3250   31.5810   20.9500 C.ar  233  PHE233     -0.0003
    172  CE2       -2.5870   33.1460   19.2690 C.ar  233  PHE233     -0.0003
    173  CZ        -2.2960   32.1610   20.2470 C.ar  233  PHE233     -0.0000
    174  N        -10.1720   29.0480   19.7430 N.3   236  LEU236     -0.1245
    175  CA       -10.0750   28.9380   21.2030 C.3   236  LEU236      0.1561
    176  C        -11.0690   29.9000   21.8300 C.2   236  LEU236      0.2260
    177  O        -11.5930   29.6510   22.9130 O.2   236  LEU236     -0.2867
    178  CB        -8.6490   29.2910   21.6240 C.3   236  LEU236      0.0270
    179  CG        -8.0600   29.2530   23.0330 C.3   236  LEU236      0.0019
    180  CD1       -8.8100   30.2060   23.8710 C.3   236  LEU236      0.0001
    181  CD2       -8.0460   27.8700   23.6490 C.3   236  LEU236      0.0001
@<TRIPOS>BOND
     1   154   155    1
     2   149   148    2
     3   148   147    1
     4   156   157    2
     5   156   155    1
     6   155   158    1
     7   146   147    1
     8   163   164    1
     9   147   150    1
    10   158   159    1
    11   150   151    1
    12   159   160    1
    13   165   164    1
    14   165   166    2
    15   164   167    1
    16   170   172   ar
    17   170   168   ar
    18   137   138    1
    19   132   131    2
    20   172   173   ar
    21    95    93   ar
    22    95    97   ar
    23   131   130    1
    24    22    24   ar
    25    22    20   ar
    26   167   168    1
    27    93    92   ar
    28   140   139    2
    29   138   139    1
    30   138   141    1
    31   174   175    1
    32   168   169   ar
    33    24    23   ar
    34   151   152   ar
    35   151   153   ar
    36   160   162   am
    37   160   161    2
    38   173   171   ar
    39    97    96   ar
    40   130   129    1
    41   130   133    1
    42    20    19    1
    43    20    21   ar
    44    19    16    1
    45   142   141    1
    46   142   143    1
    47   169   171   ar
    48    92    91    1
    49    92    94   ar
    50    91    88    1
    51    23    21   ar
    52   175   178    1
    53   175   176    1
    54    96    94   ar
    55   133   134    1
    56    88    89    1
    57    88    87    1
    58   178   179    1
    59    18    17    2
    60    89    90    2
    61   176   177    2
    62   143   144    2
    63   143   145   am
    64    16    17    1
    65    16    15    1
    66    17    25   am
    67   135   134    2
    68   134   136   am
    69    25    26    1
    70    26    29    1
    71    26    27    1
    72    37    38    1
    73    28    27    2
    74    38    39    1
    75    38    41    1
    76    15     9   am
    77   179   181    1
    78   179   180    1
    79    40    39    2
    80    27    30   am
    81   113   112    1
    82    42    41    1
    83    42    44    1
    84   107   106    2
    85   110   111    1
    86   110   109    1
    87   112   114    1
    88   112   111    2
    89   109   108    1
    90   108   105    1
    91    41    43    1
    92   118   117    2
    93     9    10    2
    94     9     8    1
    95   105   106    1
    96   105   104    1
    97    30    36    1
    98    30    31    1
    99    33    32    2
   100    32    31    1
   101   117   116    1
   102   127   125   ar
   103   127   128   ar
   104    36    35    1
   105     8    11    1
   106     8     7    1
   107   125   122   ar
   108    31    34    1
   109   116   119    1
   110   116   115    1
   111    11    12    1
   112   128   126   ar
   113    14    12    1
   114   119   120    1
   115   122   120   ar
   116   122   124   ar
   117    35    34    1
   118   101   100    2
   119    12    13    1
   120    77    76    1
   121   120   121   ar
   122   126   124   ar
   123    78    76    1
   124   102   103    1
   125   102    99    1
   126   124   123   ar
   127   100    99    1
   128    74    73    2
   129    62    61    2
   130    76    75    1
   131    75    72    1
   132    99    98    1
   133   121   123   ar
   134    63    61   am
   135    61    60    1
   136    73    72    1
   137    73    79   am
   138    72    71    1
   139    60    57    1
   140    86    84   ar
   141    84    85   ar
   142    84    83    1
   143    79    80    1
   144    80    83    1
   145    80    81    1
   146     4     3    2
   147     6     5    1
   148    55    53    1
   149    57    58    1
   150    57    56    1
   151    81    82    2
   152     3     2    1
   153    58    59    2
   154     1     2    1
   155    53    54    1
   156    53    52    2
   157     5     2    1
   158    52    51    1
   159    70    64    1
   160    70    69    1
   161    68    65    1
   162    68    69    1
   163    64    65    1
   164    65    66    1
   165    51    50    1
   166    66    67    2
   167    50    49    1
   168    49    46    1
   169    46    45    1
   170    46    47    1
   171    48    47    2
