@<TRIPOS>MOLECULE
tmp/1tlgB00.pdb
 88 83 0 0 0
SMALL
GASTEIGER

@<TRIPOS>ATOM
      1  N         28.1770   13.9910   32.0790 N.3    51  ASP51      -0.1239
      2  CA        29.3480   14.6770   32.6010 C.3    51  ASP51       0.1674
      3  C         30.0890   15.3320   31.4320 C.2    51  ASP51       0.2266
      4  O         30.2290   14.7160   30.3720 O.2    51  ASP51      -0.2867
      5  CB        30.3110   13.7200   33.3010 C.3    51  ASP51       0.1410
      6  CG        29.7300   12.9060   34.4370 C.2    51  ASP51       0.3668
      7  OD1       28.6810   13.2900   34.9960 O.co2  51  ASP51      -0.2456
      8  OD2       30.3270   11.8590   34.7940 O.co2  51  ASP51      -0.2456
      9  N         31.4780   19.8960   47.0340 N.3    85  GLU85      -0.1245
     10  CA        32.6570   19.7850   46.1630 C.3    85  GLU85       0.1567
     11  C         33.3170   21.1580   46.2070 C.2    85  GLU85       0.2260
     12  O         32.6060   22.1300   46.4590 O.2    85  GLU85      -0.2867
     13  CB        32.2510   19.3340   44.7670 C.3    85  GLU85       0.0388
     14  CG        31.4670   18.0320   44.7620 C.3    85  GLU85       0.1160
     15  CD        32.2300   16.7930   45.1840 C.2    85  GLU85       0.3649
     16  OE1       33.4850   16.8280   45.2330 O.co2  85  GLU85      -0.2457
     17  OE2       31.5710   15.7550   45.4620 O.co2  85  GLU85      -0.2457
     18  N         35.8830   17.9730   46.8660 N.3    87  SER87      -0.1202
     19  CA        36.1270   17.1330   48.0290 C.3    87  SER87       0.2020
     20  C         37.1770   16.0570   47.8270 C.2    87  SER87       0.2618
     21  O         37.3990   15.2860   48.7680 O.2    87  SER87      -0.2717
     22  CB        34.8240   16.4430   48.4710 C.3    87  SER87       0.2103
     23  OG        34.3890   15.5210   47.4780 O.3    87  SER87      -0.2182
     24  N         37.7670   15.9300   46.6470 N.am   88  ASN88      -0.1974
     25  CA        38.7650   14.8560   46.4700 C.3    88  ASN88       0.1688
     26  C         40.0350   15.2290   47.2290 C.2    88  ASN88       0.2292
     27  O         40.2210   16.3750   47.6340 O.2    88  ASN88      -0.2864
     28  CB        39.0010   14.5660   45.0000 C.3    88  ASN88       0.1181
     29  CG        37.8120   13.9630   44.2760 C.2    88  ASN88       0.2629
     30  OD1       36.6480   14.2570   44.5710 O.2    88  ASN88      -0.2716
     31  ND2       38.0900   13.1060   43.2930 N.am   88  ASN88      -0.0877
     32  N         35.0210   19.0670   36.0800 N.3    97  GLN97      -0.1245
     33  CA        33.9350   18.7100   35.1870 C.3    97  GLN97       0.1566
     34  C         32.6160   19.3290   35.6610 C.2    97  GLN97       0.2260
     35  O         32.4930   19.7670   36.8040 O.2    97  GLN97      -0.2867
     36  CB        33.7050   17.1870   35.1710 C.3    97  GLN97       0.0367
     37  CG        33.1170   16.6740   36.4800 C.3    97  GLN97       0.0905
     38  CD        32.5360   15.2870   36.4630 C.2    97  GLN97       0.2608
     39  OE1       32.2410   14.6880   35.4300 O.2    97  GLN97      -0.2717
     40  NE2       32.3150   14.6710   37.6220 N.am   97  GLN97      -0.0878
     41  N         29.5030   17.8060   36.5670 N.3    99  TRP99      -0.1241
     42  CA        29.0310   16.5060   37.0150 C.3    99  TRP99       0.1605
     43  C         27.5140   16.3780   36.8790 C.2    99  TRP99       0.2264
     44  O         26.7600   17.1880   37.4120 O.2    99  TRP99      -0.2867
     45  CB        29.4600   16.3030   38.4670 C.3    99  TRP99       0.0550
     46  CG        29.1900   14.9730   39.0840 C.ar   99  TRP99       0.0003
     47  CD1       28.9470   13.7870   38.4470 C.ar   99  TRP99       0.0946
     48  CD2       29.2040   14.6690   40.4850 C.ar   99  TRP99       0.0152
     49  NE1       28.7680   12.7810   39.3550 N.ar   99  TRP99      -0.2442
     50  CE2       28.9320   13.2940   40.6180 C.ar   99  TRP99       0.0810
     51  CE3       29.3950   15.4310   41.6410 C.ar   99  TRP99       0.0012
     52  CZ2       28.8720   12.6580   41.8590 C.ar   99  TRP99       0.0191
     53  CZ3       29.3280   14.8010   42.8700 C.ar   99  TRP99       0.0001
     54  CH2       29.0690   13.4280   42.9770 C.ar   99  TRP99       0.0015
     55  N         32.6560   19.9250   39.6580 N.3   106  ASP106     -0.1225
     56  CA        33.1440   18.8540   40.4980 C.3   106  ASP106      0.1805
     57  C         34.5920   18.4930   40.1900 C.2   106  ASP106      0.2598
     58  O         34.9730   18.4740   39.0260 O.2   106  ASP106     -0.2718
     59  CB        32.2510   17.6150   40.2870 C.3   106  ASP106      0.1424
     60  CG        32.8090   16.4090   41.0270 C.2   106  ASP106      0.3668
     61  OD1       33.0380   16.5280   42.2520 O.co2 106  ASP106     -0.2456
     62  OD2       33.0240   15.3840   40.3660 O.co2 106  ASP106     -0.2456
     63  N         35.3520   18.1860   41.2430 N.am  107  ASP107     -0.1960
     64  CA        36.7470   17.7920   41.0570 C.3   107  ASP107      0.1840
     65  C         36.8310   16.2800   40.8800 C.2   107  ASP107      0.2621
     66  O         36.2250   15.5180   41.6360 O.2   107  ASP107     -0.2715
     67  CB        37.6520   18.2890   42.1800 C.3   107  ASP107      0.1450
     68  CG        37.2980   17.8200   43.5770 C.2   107  ASP107      0.3671
     69  OD1       36.1000   17.6770   43.8920 O.co2 107  ASP107     -0.2456
     70  OD2       38.2280   17.5880   44.3880 O.co2 107  ASP107     -0.2456
     71  N         37.5650   15.8540   39.8600 N.am  108  VAL108     -0.1977
     72  CA        37.7750   14.4370   39.5830 C.3   108  VAL108      0.1596
     73  C         39.2150   14.1840   39.1430 C.2   108  VAL108      0.2287
     74  O         39.9410   15.1380   38.8870 O.2   108  VAL108     -0.2864
     75  CB        36.8860   13.9140   38.4330 C.3   108  VAL108      0.0276
     76  CG1       35.4240   13.8960   38.8480 C.3   108  VAL108      0.0022
     77  CG2       37.0680   14.7670   37.1890 C.3   108  VAL108      0.0022
     78  N         35.0520   11.9250   29.2030 N.3   114  ARG114     -0.1245
     79  CA        33.8670   12.7560   29.3850 C.3   114  ARG114      0.1563
     80  C         33.6340   13.5860   28.1290 C.2   114  ARG114      0.2260
     81  O         34.5520   13.7290   27.3260 O.2   114  ARG114     -0.2867
     82  CB        34.0130   13.6650   30.6170 C.3   114  ARG114      0.0307
     83  CG        34.1170   12.8790   31.9160 C.3   114  ARG114      0.0489
     84  CD        34.3860   13.7780   33.1230 C.3   114  ARG114      0.2205
     85  NE        34.1320   13.0130   34.3440 N.pl3 114  ARG114     -0.0865
     86  CZ        34.9510   12.1580   34.9290 C.cat 114  ARG114      0.5346
     87  NH1       36.1630   11.9430   34.4340 N.pl3 114  ARG114      0.1354
     88  NH2       34.5540   11.5080   36.0240 N.pl3 114  ARG114      0.1354
@<TRIPOS>BOND
     1    81    80    2
     2    80    79    1
     3    78    79    1
     4    79    82    1
     5     4     3    2
     6    82    83    1
     7     3     2    1
     8    83    84    1
     9     1     2    1
    10     2     5    1
    11    84    85    1
    12     5     6    1
    13    85    86    2
    14    87    86    1
    15     6     8   ar
    16     6     7   ar
    17    86    88    1
    18    36    33    1
    19    36    37    1
    20    33    34    1
    21    33    32    1
    22    39    38    2
    23    34    35    2
    24    38    37    1
    25    38    40   am
    26    41    42    1
    27    43    42    1
    28    43    44    2
    29    42    45    1
    30    77    75    1
    31    75    76    1
    32    75    72    1
    33    47    46   ar
    34    47    49   ar
    35    45    46    1
    36    74    73    2
    37    58    57    2
    38    46    48   ar
    39    73    72    1
    40    49    50   ar
    41    72    71    1
    42    55    56    1
    43    71    65   am
    44    57    56    1
    45    57    63   am
    46    59    56    1
    47    59    60    1
    48    62    60   ar
    49    48    50   ar
    50    48    51   ar
    51    50    52   ar
    52    65    64    1
    53    65    66    2
    54    60    61   ar
    55    64    63    1
    56    64    67    1
    57    51    53   ar
    58    52    54   ar
    59    67    68    1
    60    53    54   ar
    61    31    29   am
    62    68    69   ar
    63    68    70   ar
    64    29    30    2
    65    29    28    1
    66    14    13    1
    67    14    15    1
    68    13    10    1
    69    28    25    1
    70    15    16   ar
    71    15    17   ar
    72    10    11    1
    73    10     9    1
    74    11    12    2
    75    25    24    1
    76    25    26    1
    77    24    20   am
    78    18    19    1
    79    26    27    2
    80    23    22    1
    81    20    19    1
    82    20    21    2
    83    19    22    1
