@<TRIPOS>MOLECULE
tmp/1tllA00.pdb
 176 172 0 0 0
SMALL
GASTEIGER

@<TRIPOS>ATOM
      1  N          9.4040   -3.2110    4.8010 N.3    12  THR12      -0.1203
      2  CA         8.5630   -3.6370    3.7030 C.3    12  THR12       0.1994
      3  C          7.1050   -3.4160    4.1120 C.2    12  THR12       0.2618
      4  O          6.8140   -3.2070    5.2940 O.2    12  THR12      -0.2717
      5  CB         8.8530   -5.1520    3.4200 C.3    12  THR12       0.1784
      6  OG1        8.0720   -5.6220    2.3190 O.3    12  THR12      -0.2211
      7  CG2        8.5270   -5.9850    4.6610 C.3    12  THR12       0.0376
      8  N          6.1930   -3.4320    3.1430 N.am   13  GLU13      -0.1965
      9  CA         4.7700   -3.2530    3.4280 C.3    13  GLU13       0.1733
     10  C          3.9800   -4.3900    2.8080 C.2    13  GLU13       0.2617
     11  O          2.8820   -4.7000    3.2620 O.2    13  GLU13      -0.2715
     12  CB         4.2470   -1.9200    2.8850 C.3    13  GLU13       0.0429
     13  CG         4.5200   -0.7100    3.7650 C.3    13  GLU13       0.1163
     14  CD         3.5950   -0.6190    4.9750 C.2    13  GLU13       0.3649
     15  OE1        2.3790   -0.8560    4.8130 O.co2  13  GLU13      -0.2457
     16  OE2        4.0800   -0.2910    6.0810 O.co2  13  GLU13      -0.2457
     17  N          4.5300   -5.0130    1.7710 N.am   14  THR14      -0.1951
     18  CA         3.8430   -6.1290    1.1340 C.3    14  THR14       0.1897
     19  C          4.7380   -7.3630    1.0450 C.2    14  THR14       0.2313
     20  O          4.3330   -8.3880    0.5050 O.2    14  THR14      -0.2863
     21  CB         3.3270   -5.7580   -0.2810 C.3    14  THR14       0.1794
     22  OG1        4.4250   -5.6610   -1.1950 O.3    14  THR14      -0.2208
     23  CG2        2.5950   -4.4210   -0.2440 C.3    14  THR14       0.0378
     24  N          8.0480   -7.6370   -0.4280 N.3    16  LYS16      -0.1231
     25  CA         9.1130   -7.7140   -1.4160 C.3    16  LYS16       0.1693
     26  C         10.4930   -7.4360   -0.8300 C.2    16  LYS16       0.2592
     27  O         11.4300   -8.2050   -1.0460 O.2    16  LYS16      -0.2718
     28  CB         8.8360   -6.7600   -2.5710 C.3    16  LYS16       0.0285
     29  CG         7.7170   -7.2210   -3.4890 C.3    16  LYS16       0.0035
     30  CD         7.6150   -6.3270   -4.7140 C.3    16  LYS16       0.0206
     31  CE         6.3060   -5.5590   -4.7230 C.3    16  LYS16       0.1093
     32  NZ         6.3440   -4.4010   -5.6560 N.3    16  LYS16      -0.1314
     33  N         10.6430   -6.3480   -0.0870 N.am   17  SER17      -0.1952
     34  CA        11.9550   -6.0620    0.4700 C.3    17  SER17       0.1924
     35  C         12.4050   -7.2310    1.3320 C.2    17  SER17       0.2314
     36  O         13.5610   -7.6330    1.2980 O.2    17  SER17      -0.2863
     37  CB        11.9270   -4.7830    1.2940 C.3    17  SER17       0.2116
     38  OG        11.5400   -3.6940    0.4790 O.3    17  SER17      -0.2180
     39  N         11.5490   -0.5110    0.9590 N.3    58  SER58      -0.1202
     40  CA        10.6410    0.1010    0.0090 C.3    58  SER58       0.2020
     41  C         10.2880    1.4700    0.5780 C.2    58  SER58       0.2619
     42  O         10.8420    1.9040    1.5770 O.2    58  SER58      -0.2717
     43  CB         9.3810   -0.7420   -0.1480 C.3    58  SER58       0.2103
     44  OG         8.7700   -0.9500    1.1090 O.3    58  SER58      -0.2182
     45  N          9.3810    2.1560   -0.0860 N.am   59  THR59      -0.1938
     46  CA         8.9390    3.4720    0.3410 C.3    59  THR59       0.2028
     47  C          7.4490    3.3470    0.2310 C.2    59  THR59       0.2642
     48  O          6.9560    2.6530   -0.6490 O.2    59  THR59      -0.2714
     49  CB         9.4030    4.5840   -0.6340 C.3    59  THR59       0.1808
     50  OG1       10.8260    4.6080   -0.6750 O.3    59  THR59      -0.2208
     51  CG2        8.9310    5.9450   -0.1740 C.3    59  THR59       0.0379
     52  N          6.7230    4.0000    1.1220 N.am   60  PHE60      -0.1959
     53  CA         5.2850    3.9260    1.0400 C.3    60  PHE60       0.1771
     54  C          4.5950    5.2590    1.2080 C.2    60  PHE60       0.2620
     55  O          5.2380    6.2950    1.3540 O.2    60  PHE60      -0.2715
     56  CB         4.7410    2.9130    2.0390 C.3    60  PHE60       0.0574
     57  CG         4.0720    1.7530    1.3790 C.ar   60  PHE60      -0.0200
     58  CD1        4.8320    0.7240    0.8000 C.ar   60  PHE60      -0.0042
     59  CD2        2.6940    1.7180    1.2590 C.ar   60  PHE60      -0.0042
     60  CE1        4.2130   -0.3190    0.1080 C.ar   60  PHE60      -0.0003
     61  CE2        2.0660    0.6880    0.5760 C.ar   60  PHE60      -0.0003
     62  CZ         2.8270   -0.3370   -0.0050 C.ar   60  PHE60      -0.0000
     63  N          3.2720    5.2190    1.1510 N.am   61  GLY61      -0.1940
     64  CA         2.4880    6.4260    1.2860 C.3    61  GLY61       0.2014
     65  C          3.0130    7.5320    0.4030 C.2    61  GLY61       0.2639
     66  O          3.2400    7.3380   -0.7920 O.2    61  GLY61      -0.2714
     67  N          3.2370    8.6880    1.0100 N.am   62  ASN62      -0.1958
     68  CA         3.7200    9.8500    0.2850 C.3    62  ASN62       0.1819
     69  C          5.2320   10.0480    0.4460 C.2    62  ASN62       0.2621
     70  O          5.6810   11.0400    1.0250 O.2    62  ASN62      -0.2715
     71  CB         2.9530   11.0750    0.7800 C.3    62  ASN62       0.1195
     72  CG         3.0360   12.2390   -0.1760 C.2    62  ASN62       0.2630
     73  OD1        3.2050   12.0530   -1.3850 O.2    62  ASN62      -0.2716
     74  ND2        2.8930   13.4560    0.3560 N.am   62  ASN62      -0.0877
     75  N          6.0100    9.1020   -0.0730 N.am   63  GLY63      -0.1954
     76  CA         7.4570    9.1810    0.0360 C.3    63  GLY63       0.1869
     77  C          7.8970    8.8700    1.4600 C.2    63  GLY63       0.2309
     78  O          8.9370    9.3060    1.9100 O.2    63  GLY63      -0.2863
     79  N         13.3650   -0.1090   -2.9790 N.3   108  LEU108     -0.1231
     80  CA        12.2870   -0.5030   -3.8630 C.3   108  LEU108      0.1693
     81  C         11.3520    0.7070   -3.9530 C.2   108  LEU108      0.2593
     82  O         11.2480    1.4980   -2.9930 O.2   108  LEU108     -0.2718
     83  CB        11.5390   -1.6910   -3.2800 C.3   108  LEU108      0.0284
     84  CG        12.2410   -3.0470   -3.2180 C.3   108  LEU108      0.0019
     85  CD1       13.4140   -3.0030   -2.2690 C.3   108  LEU108      0.0001
     86  CD2       11.2350   -4.0940   -2.7500 C.3   108  LEU108      0.0001
     87  N         10.6730    0.8480   -5.0930 N.am  109  GLY109     -0.1942
     88  CA         9.7680    1.9690   -5.2910 C.3   109  GLY109      0.2014
     89  C          9.0470    1.8870   -6.6190 C.2   109  GLY109      0.2639
     90  O          8.9130    0.8120   -7.1840 O.2   109  GLY109     -0.2714
     91  N          8.5600    3.0200   -7.1110 N.am  110  SER110     -0.1949
     92  CA         7.8560    3.0600   -8.3900 C.3   110  SER110      0.1924
     93  C          7.9670    4.4450   -9.0220 C.2   110  SER110      0.2314
     94  O          7.7960    5.4610   -8.3410 O.2   110  SER110     -0.2863
     95  CB         6.3930    2.7020   -8.2130 C.3   110  SER110      0.2116
     96  OG         5.6770    2.9430   -9.4140 O.3   110  SER110     -0.2180
     97  N          5.4140    7.3190   -8.7610 N.3   113  TYR113     -0.1241
     98  CA         5.3080    8.2300   -7.6340 C.3   113  TYR113      0.1605
     99  C          6.3650    9.3400   -7.6830 C.2   113  TYR113      0.2264
    100  O          7.4870    9.1400   -8.1510 O.2   113  TYR113     -0.2867
    101  CB         5.4660    7.4490   -6.3250 C.3   113  TYR113      0.0534
    102  CG         4.3410    6.4590   -6.0710 C.ar  113  TYR113     -0.0201
    103  CD1        3.2800    6.7790   -5.2200 C.ar  113  TYR113     -0.0009
    104  CD2        4.3010    5.2250   -6.7280 C.ar  113  TYR113     -0.0009
    105  CE1        2.2090    5.9000   -5.0330 C.ar  113  TYR113      0.0417
    106  CE2        3.2310    4.3450   -6.5450 C.ar  113  TYR113      0.0417
    107  CZ         2.1990    4.6790   -5.7010 C.ar  113  TYR113      0.1957
    108  OH         1.1960    3.7510   -5.5180 O.3   113  TYR113     -0.2866
    109  N          8.2430   11.0160   -5.3200 N.3   115  HIS115     -0.1226
    110  CA         9.4970   10.7910   -4.6220 C.3   115  HIS115      0.1752
    111  C          9.8890    9.3270   -4.6950 C.2   115  HIS115      0.2596
    112  O          9.6910    8.5670   -3.7530 O.2   115  HIS115     -0.2718
    113  CB         9.3310   11.2720   -3.1800 C.3   115  HIS115      0.0759
    114  CG         8.6360   12.5890   -3.0900 C.ar  115  HIS115      0.0818
    115  ND1        9.2020   13.7470   -3.5740 N.ar  115  HIS115     -0.2268
    116  CD2        7.3850   12.9180   -2.6790 C.ar  115  HIS115      0.1154
    117  CE1        8.3280   14.7340   -3.4720 C.ar  115  HIS115      0.1986
    118  NE2        7.2190   14.2570   -2.9350 N.ar  115  HIS115     -0.2212
    119  N         10.4440    8.9600   -5.8450 N.am  116  PHE116     -0.1962
    120  CA        10.8740    7.6060   -6.1530 C.3   116  PHE116      0.1771
    121  C         11.9280    7.1070   -5.1710 C.2   116  PHE116      0.2619
    122  O         12.9800    7.7200   -5.0310 O.2   116  PHE116     -0.2715
    123  CB        11.4220    7.5790   -7.5920 C.3   116  PHE116      0.0574
    124  CG        11.8320    6.2120   -8.0690 C.ar  116  PHE116     -0.0200
    125  CD1       10.9830    5.1200   -7.9160 C.ar  116  PHE116     -0.0042
    126  CD2       13.0550    6.0280   -8.7090 C.ar  116  PHE116     -0.0042
    127  CE1       11.3440    3.8630   -8.3800 C.ar  116  PHE116     -0.0003
    128  CE2       13.4280    4.7710   -9.1820 C.ar  116  PHE116     -0.0003
    129  CZ        12.5680    3.6870   -9.0200 C.ar  116  PHE116     -0.0000
    130  N         11.6340    6.0040   -4.4800 N.am  117  CYS117     -0.1968
    131  CA        12.5600    5.4070   -3.5110 C.3   117  CYS117      0.1712
    132  C         13.0550    6.3810   -2.4500 C.2   117  CYS117      0.2296
    133  O         14.2080    6.3240   -2.0410 O.2   117  CYS117     -0.2864
    134  CB        13.7690    4.8010   -4.2390 C.3   117  CYS117      0.0983
    135  SG        13.3320    3.5230   -5.4360 S.3   117  CYS117     -0.0798
    136  N          9.3150   -1.0730   -9.4300 N.3   143  GLU143     -0.1245
    137  CA         8.2510   -2.0690   -9.4960 C.3   143  GLU143      0.1567
    138  C          7.6320   -2.1170  -10.8840 C.2   143  GLU143      0.2260
    139  O          7.0390   -3.1180  -11.2830 O.2   143  GLU143     -0.2867
    140  CB         7.1610   -1.7240   -8.4830 C.3   143  GLU143      0.0388
    141  CG         6.1810   -2.8460   -8.2270 C.3   143  GLU143      0.1160
    142  CD         4.7840   -2.3520   -7.9110 C.2   143  GLU143      0.3649
    143  OE1        4.6410   -1.3670   -7.1430 O.co2 143  GLU143     -0.2457
    144  OE2        3.8260   -2.9620   -8.4340 O.co2 143  GLU143     -0.2457
    145  N         12.3060   -4.7840  -11.3570 N.3   147  GLN147     -0.1245
    146  CA        12.6490   -4.6530   -9.9450 C.3   147  GLN147      0.1566
    147  C         13.4820   -5.8310   -9.4640 C.2   147  GLN147      0.2260
    148  O         14.5920   -5.6530   -8.9750 O.2   147  GLN147     -0.2867
    149  CB        11.3860   -4.5420   -9.0830 C.3   147  GLN147      0.0367
    150  CG        11.6750   -4.1200   -7.6480 C.3   147  GLN147      0.0905
    151  CD        10.4130   -3.8300   -6.8520 C.2   147  GLN147      0.2608
    152  OE1        9.7040   -4.7480   -6.4420 O.2   147  GLN147     -0.2717
    153  NE2       10.1230   -2.5430   -6.6390 N.am  147  GLN147     -0.0878
    154  N         -2.3790    9.2560    0.1260 N.3   611  ILE611     -0.1231
    155  CA        -2.1970    8.5450   -1.1360 C.3   611  ILE611      0.1692
    156  C         -2.7000    7.1120   -1.1870 C.2   611  ILE611      0.2592
    157  O         -2.2470    6.2490   -0.4300 O.2   611  ILE611     -0.2718
    158  CB        -0.6920    8.5360   -1.5380 C.3   611  ILE611      0.0266
    159  CG1       -0.1240    9.9560   -1.4510 C.3   611  ILE611      0.0019
    160  CG2       -0.5190    7.9680   -2.9370 C.3   611  ILE611      0.0020
    161  CD1       -0.8410   10.9640   -2.3170 C.3   611  ILE611      0.0001
    162  N         -3.6170    6.8580   -2.1130 N.am  612  PHE612     -0.1962
    163  CA        -4.1800    5.5300   -2.3080 C.3   612  PHE612      0.1771
    164  C         -3.2700    4.6980   -3.2060 C.2   612  PHE612      0.2620
    165  O         -3.4470    3.4880   -3.3410 O.2   612  PHE612     -0.2715
    166  CB        -5.5460    5.6030   -3.0020 C.3   612  PHE612      0.0574
    167  CG        -6.6690    6.0740   -2.1250 C.ar  612  PHE612     -0.0200
    168  CD1       -7.9750    5.9630   -2.5670 C.ar  612  PHE612     -0.0042
    169  CD2       -6.4300    6.6450   -0.8790 C.ar  612  PHE612     -0.0042
    170  CE1       -9.0250    6.4070   -1.7920 C.ar  612  PHE612     -0.0003
    171  CE2       -7.4830    7.0890   -0.0970 C.ar  612  PHE612     -0.0003
    172  CZ        -8.7760    6.9710   -0.5550 C.ar  612  PHE612     -0.0000
    173  N         -2.3030    5.3560   -3.8300 N.am  613  GLY613     -0.1954
    174  CA        -1.4260    4.6440   -4.7450 C.3   613  GLY613      0.1869
    175  C         -1.9250    4.9290   -6.1540 C.2   613  GLY613      0.2309
    176  O         -2.6030    5.9370   -6.3690 O.2   613  GLY613     -0.2863
@<TRIPOS>BOND
     1   145   146    1
     2   139   138    2
     3   138   137    1
     4   146   147    1
     5   146   149    1
     6   137   136    1
     7   137   140    1
     8   147   148    2
     9    96    95    1
    10   128   129   ar
    11   128   126   ar
    12   149   150    1
    13    93    92    1
    14    93    94    2
    15   129   127   ar
    16    97    98    1
    17   126   124   ar
    18   140   141    1
    19   144   142   ar
    20    92    95    1
    21    92    91    1
    22   127   125   ar
    23   141   142    1
    24   100    99    2
    25   124   125   ar
    26   124   123    1
    27   142   143   ar
    28    99    98    1
    29   150   151    1
    30    98   101    1
    31   123   120    1
    32    90    89    2
    33    91    89   am
    34   151   153   am
    35   151   152    2
    36   104   106   ar
    37   104   102   ar
    38    89    88    1
    39   106   107   ar
    40   176   175    2
    41   101   102    1
    42   175   174    1
    43   120   119    1
    44   120   121    1
    45   102   103   ar
    46   119   111   am
    47   107   108    1
    48   107   105   ar
    49    32    31    1
    50   135   134    1
    51   109   110    1
    52    88    87    1
    53   103   105   ar
    54   121   122    2
    55   121   130   am
    56    87    81   am
    57   174   173    1
    58    31    30    1
    59    30    29    1
    60   111   110    1
    61   111   112    2
    62   110   113    1
    63   130   131    1
    64   134   131    1
    65    81    80    1
    66    81    82    2
    67    80    83    1
    68    80    79    1
    69   173   164   am
    70   115   117   ar
    71   115   114   ar
    72   131   132    1
    73    29    28    1
    74   117   118   ar
    75   165   164    2
    76    83    84    1
    77    84    86    1
    78    84    85    1
    79   164   163    1
    80   113   114    1
    81   114   116   ar
    82   166   163    1
    83   166   167    1
    84   160   158    1
    85   118   116   ar
    86    28    25    1
    87   168   167   ar
    88   168   170   ar
    89   132   133    2
    90   161   159    1
    91   163   162    1
    92   167   169   ar
    93   162   156   am
    94   170   172   ar
    95   158   159    1
    96   158   155    1
    97    25    26    1
    98    25    24    1
    99    73    72    2
   100    22    21    1
   101   156   155    1
   102   156   157    2
   103   155   154    1
   104    27    26    2
   105   169   171   ar
   106    26    33   am
   107    66    65    2
   108    50    49    1
   109    48    47    2
   110    49    51    1
   111    49    46    1
   112   172   171   ar
   113    21    23    1
   114    21    18    1
   115    72    74   am
   116    72    71    1
   117    43    40    1
   118    43    44    1
   119    33    34    1
   120    45    46    1
   121    45    41   am
   122    75    76    1
   123    75    69   am
   124    62    60   ar
   125    62    61   ar
   126    40    41    1
   127    40    39    1
   128    76    77    1
   129    60    58   ar
   130    47    46    1
   131    47    52   am
   132    68    69    1
   133    68    71    1
   134    68    67    1
   135    65    67   am
   136    65    64    1
   137    69    70    2
   138    34    37    1
   139    34    35    1
   140    38    37    1
   141    20    19    2
   142    61    59   ar
   143    41    42    2
   144    58    57   ar
   145    53    52    1
   146    53    54    1
   147    53    56    1
   148    19    18    1
   149    18    17    1
   150    63    54   am
   151    63    64    1
   152    54    55    2
   153    59    57   ar
   154    36    35    2
   155    57    56    1
   156    77    78    2
   157    17    10   am
   158     6     5    1
   159    10    11    2
   160    10     9    1
   161    12     9    1
   162    12    13    1
   163     8     9    1
   164     8     3   am
   165     5     2    1
   166     5     7    1
   167     2     3    1
   168     2     1    1
   169    13    14    1
   170     3     4    2
   171    15    14   ar
   172    14    16   ar
