@<TRIPOS>MOLECULE
tmp/1tloA00.pdb
 151 144 0 0 0
SMALL
GASTEIGER

@<TRIPOS>ATOM
      1  N         17.3180   34.9740   15.6950 N.3    77  GLN77      -0.1245
      2  CA        17.0730   36.3540   16.0740 C.3    77  GLN77       0.1566
      3  C         18.3060   37.1360   16.5150 C.2    77  GLN77       0.2260
      4  O         19.2070   36.6080   17.1720 O.2    77  GLN77      -0.2867
      5  CB        16.0120   36.3860   17.1680 C.3    77  GLN77       0.0367
      6  CG        15.6770   37.7630   17.7020 C.3    77  GLN77       0.0905
      7  CD        14.4470   37.7260   18.5790 C.2    77  GLN77       0.2608
      8  OE1       13.9720   36.6510   18.9420 O.2    77  GLN77      -0.2717
      9  NE2       13.9250   38.8930   18.9250 N.am   77  GLN77      -0.0878
     10  N         13.6300   43.2130   18.6510 N.3    81  GLY81      -0.1225
     11  CA        12.5320   42.4960   19.2680 C.3    81  GLY81       0.1811
     12  C         11.4670   42.0670   18.2780 C.2    81  GLY81       0.2280
     13  O         10.2990   42.4070   18.4450 O.2    81  GLY81      -0.2866
     14  N         10.6330   38.7880   17.4840 N.3    83  CYS83      -0.1221
     15  CA        10.4300   37.3510   17.6620 C.3    83  CYS83       0.1808
     16  C          9.1370   36.8760   16.9930 C.2    83  CYS83       0.2601
     17  O          9.0920   35.7840   16.4170 O.2    83  CYS83      -0.2717
     18  CB        10.3850   37.0120   19.1540 C.3    83  CYS83       0.0970
     19  SG         8.9410   37.6840   20.0250 S.3    83  CYS83      -0.0800
     20  N          8.0900   37.6960   17.0720 N.am   84  TRP84      -0.1976
     21  CA         6.7980   37.3630   16.4720 C.3    84  TRP84       0.1640
     22  C          6.9500   37.0890   14.9780 C.2    84  TRP84       0.2290
     23  O          6.3330   36.1640   14.4330 O.2    84  TRP84      -0.2864
     24  CB         5.7910   38.5100   16.6750 C.3    84  TRP84       0.0576
     25  CG         6.2710   39.8500   16.1410 C.ar   84  TRP84       0.0006
     26  CD1        7.1810   40.6860   16.7270 C.ar   84  TRP84       0.0946
     27  CD2        5.8810   40.4840   14.9110 C.ar   84  TRP84       0.0152
     28  NE1        7.3840   41.8000   15.9390 N.ar   84  TRP84      -0.2442
     29  CE2        6.6010   41.7020   14.8210 C.ar   84  TRP84       0.0810
     30  CE3        4.9970   40.1400   13.8760 C.ar   84  TRP84       0.0012
     31  CZ2        6.4620   42.5810   13.7380 C.ar   84  TRP84       0.0191
     32  CZ3        4.8590   41.0150   12.7960 C.ar   84  TRP84       0.0001
     33  CH2        5.5920   42.2230   12.7380 C.ar   84  TRP84       0.0015
     34  N          8.3060   44.4380   18.6020 N.3   175  GLY175     -0.1210
     35  CA         7.0400   44.2760   19.2920 C.3   175  GLY175      0.1956
     36  C          5.9380   43.9910   18.2970 C.2   175  GLY175      0.2612
     37  O          5.6810   44.7880   17.3870 O.2   175  GLY175     -0.2717
     38  N          5.2770   42.8530   18.4510 N.am  176  GLY176     -0.1942
     39  CA         4.2300   42.5170   17.5120 C.3   176  GLY176      0.2014
     40  C          3.3930   41.3220   17.9080 C.2   176  GLY176      0.2639
     41  O          3.4250   40.8660   19.0520 O.2   176  GLY176     -0.2714
     42  N          2.6530   40.8140   16.9320 N.am  177  CYS177     -0.1953
     43  CA         1.7530   39.6920   17.1170 C.3   177  CYS177      0.1843
     44  C          2.0440   38.6310   16.0620 C.2   177  CYS177      0.2626
     45  O          2.0240   38.9200   14.8670 O.2   177  CYS177     -0.2714
     46  CB         0.3220   40.2050   16.9880 C.3   177  CYS177      0.0997
     47  SG        -0.9460   38.9640   17.0620 S.3   177  CYS177     -0.0797
     48  N          2.3140   37.4030   16.4990 N.am  178  THR178     -0.1950
     49  CA         2.6310   36.3380   15.5580 C.3   178  THR178      0.1897
     50  C          1.6180   36.2080   14.4260 C.2   178  THR178      0.2313
     51  O          1.9970   36.0860   13.2560 O.2   178  THR178     -0.2863
     52  CB         2.7520   34.9780   16.2700 C.3   178  THR178      0.1794
     53  OG1        3.8110   35.0430   17.2330 O.3   178  THR178     -0.2208
     54  CG2        3.0680   33.8780   15.2580 C.3   178  THR178      0.0378
     55  N         -0.1390   38.3280   13.0110 N.3   180  GLU180     -0.1245
     56  CA         0.0100   39.3700   12.0080 C.3   180  GLU180      0.1567
     57  C          1.0070   38.9240   10.9470 C.2   180  GLU180      0.2260
     58  O          0.8020   39.1510    9.7550 O.2   180  GLU180     -0.2867
     59  CB         0.4940   40.6690   12.6430 C.3   180  GLU180      0.0388
     60  CG        -0.4250   41.2230   13.7120 C.3   180  GLU180      0.1160
     61  CD        -0.0570   42.6440   14.0940 C.2   180  GLU180      0.3649
     62  OE1       -0.5820   43.1480   15.1100 O.co2 180  GLU180     -0.2457
     63  OE2        0.7560   43.2590   13.3680 O.co2 180  GLU180     -0.2457
     64  N          3.1110   31.1790   22.9980 N.3   219  SER219     -0.1202
     65  CA         3.8360   32.1090   23.8500 C.3   219  SER219      0.2020
     66  C          3.3250   32.1110   25.2860 C.2   219  SER219      0.2618
     67  O          2.2350   31.6060   25.5740 O.2   219  SER219     -0.2717
     68  CB         3.7210   33.5150   23.2760 C.3   219  SER219      0.2103
     69  OG         2.3570   33.8760   23.1210 O.3   219  SER219     -0.2182
     70  N          4.1250   32.6990   26.1720 N.am  220  ILE220     -0.1979
     71  CA         3.7990   32.7920   27.5910 C.3   220  ILE220      0.1595
     72  C          3.5820   34.2500   27.9790 C.2   220  ILE220      0.2287
     73  O          4.5010   35.0630   27.8940 O.2   220  ILE220     -0.2864
     74  CB         4.9420   32.2350   28.4640 C.3   220  ILE220      0.0276
     75  CG1        5.3290   30.8320   27.9870 C.3   220  ILE220      0.0022
     76  CG2        4.5090   32.2160   29.9290 C.3   220  ILE220      0.0022
     77  CD1        6.6110   30.3050   28.6120 C.3   220  ILE220      0.0001
     78  N          2.8360   37.6200   30.3500 N.3   222  ILE222     -0.1245
     79  CA         3.4930   38.1460   31.5470 C.3   222  ILE222      0.1561
     80  C          2.5840   39.0920   32.3310 C.2   222  ILE222      0.2260
     81  O          1.7520   39.7860   31.7500 O.2   222  ILE222     -0.2867
     82  CB         4.7780   38.9010   31.1690 C.3   222  ILE222      0.0252
     83  CG1        4.4810   39.8820   30.0310 C.3   222  ILE222      0.0019
     84  CG2        5.8570   37.9140   30.7650 C.3   222  ILE222      0.0019
     85  CD1        5.7020   40.6070   29.4950 C.3   222  ILE222      0.0001
     86  N          9.9660   41.7840   30.6670 N.3   228  LEU228     -0.1231
     87  CA        10.3000   41.6610   29.2540 C.3   228  LEU228      0.1693
     88  C         11.5540   40.8160   29.0590 C.2   228  LEU228      0.2591
     89  O         12.6050   41.1050   29.6380 O.2   228  LEU228     -0.2718
     90  CB        10.5220   43.0510   28.6490 C.3   228  LEU228      0.0284
     91  CG        10.9680   43.1400   27.1860 C.3   228  LEU228      0.0019
     92  CD1        9.9080   42.5270   26.2790 C.3   228  LEU228      0.0001
     93  CD2       11.2030   44.5980   26.8180 C.3   228  LEU228      0.0001
     94  N         11.4370   39.7780   28.2360 N.am  229  GLU229     -0.1979
     95  CA        12.5520   38.8790   27.9480 C.3   229  GLU229      0.1602
     96  C         13.0200   38.1440   29.2040 C.2   229  GLU229      0.2287
     97  O         14.1910   37.7810   29.3200 O.2   229  GLU229     -0.2864
     98  CB        13.7180   39.6680   27.3370 C.3   229  GLU229      0.0415
     99  CG        13.3630   40.3740   26.0300 C.3   229  GLU229      0.1163
    100  CD        14.5270   41.1430   25.4230 C.2   229  GLU229      0.3649
    101  OE1       14.9810   42.1320   26.0410 O.co2 229  GLU229     -0.2457
    102  OE2       14.9880   40.7570   24.3240 O.co2 229  GLU229     -0.2457
    103  N         11.3260   31.3780   27.7440 N.3   237  VAL237     -0.1245
    104  CA        11.3390   32.8300   27.6990 C.3   237  VAL237      0.1561
    105  C          9.9010   33.3090   27.6280 C.2   237  VAL237      0.2260
    106  O          9.1320   32.8450   26.7870 O.2   237  VAL237     -0.2867
    107  CB        12.1080   33.3460   26.4690 C.3   237  VAL237      0.0252
    108  CG1       12.3250   34.8520   26.5870 C.3   237  VAL237      0.0019
    109  CG2       13.4370   32.6140   26.3410 C.3   237  VAL237      0.0019
    110  N          6.8440   36.2490   27.1910 N.3   239  GLY239     -0.1210
    111  CA         6.6120   37.3810   26.3130 C.3   239  GLY239      0.1956
    112  C          7.4290   37.2180   25.0490 C.2   239  GLY239      0.2612
    113  O          7.8060   38.1990   24.4230 O.2   239  GLY239     -0.2717
    114  N          7.6700   35.9660   24.6680 N.am  240  HIS240     -0.1961
    115  CA         8.4880   35.6240   23.5080 C.3   240  HIS240      0.1787
    116  C          7.7600   34.5970   22.6300 C.2   240  HIS240      0.2620
    117  O          7.2720   33.5900   23.1280 O.2   240  HIS240     -0.2715
    118  CB         9.8120   35.0520   24.0380 C.3   240  HIS240      0.0785
    119  CG        10.8460   34.7820   22.9910 C.ar  240  HIS240      0.0821
    120  ND1       11.4060   35.7770   22.2170 N.ar  240  HIS240     -0.2267
    121  CD2       11.4680   33.6330   22.6350 C.ar  240  HIS240      0.1154
    122  CE1       12.3300   35.2530   21.4320 C.ar  240  HIS240      0.1986
    123  NE2       12.3880   33.9530   21.6660 N.ar  240  HIS240     -0.2212
    124  N          7.6840   34.8510   21.3250 N.am  241  ALA241     -0.1977
    125  CA         7.0130   33.9250   20.4160 C.3   241  ALA241      0.1597
    126  C          7.8690   32.7030   20.0930 C.2   241  ALA241      0.2287
    127  O          9.0640   32.8340   19.8450 O.2   241  ALA241     -0.2864
    128  CB         6.6430   34.6440   19.1100 C.3   241  ALA241      0.0319
    129  N         15.5160   32.3170   18.8950 N.3   266  TRP266     -0.1241
    130  CA        16.8660   32.7550   19.2470 C.3   266  TRP266      0.1605
    131  C         17.8530   31.7320   18.6960 C.2   266  TRP266      0.2264
    132  O         19.0260   32.0370   18.4780 O.2   266  TRP266     -0.2867
    133  CB        17.0640   32.8150   20.7590 C.3   266  TRP266      0.0550
    134  CG        16.4750   33.9880   21.4470 C.ar  266  TRP266      0.0003
    135  CD1       15.8820   35.0810   20.8740 C.ar  266  TRP266      0.0946
    136  CD2       16.4540   34.2110   22.8580 C.ar  266  TRP266      0.0152
    137  NE1       15.4960   35.9710   21.8510 N.ar  266  TRP266     -0.2442
    138  CE2       15.8360   35.4610   23.0770 C.ar  266  TRP266      0.0810
    139  CE3       16.9020   33.4730   23.9630 C.ar  266  TRP266      0.0012
    140  CZ2       15.6510   35.9930   24.3600 C.ar  266  TRP266      0.0191
    141  CZ3       16.7190   34.0060   25.2450 C.ar  266  TRP266      0.0001
    142  CH2       16.0980   35.2540   25.4250 C.ar  266  TRP266      0.0015
    143  N         -1.4910   30.2760   18.5960 N.3   317  GLU317     -0.1245
    144  CA        -2.0830   30.9060   17.4250 C.3   317  GLU317      0.1567
    145  C         -1.9060   29.9480   16.2610 C.2   317  GLU317      0.2260
    146  O         -0.8570   29.3200   16.1240 O.2   317  GLU317     -0.2867
    147  CB        -1.3790   32.2290   17.1320 C.3   317  GLU317      0.0388
    148  CG        -1.5590   33.2610   18.2430 C.3   317  GLU317      0.1160
    149  CD        -0.5110   34.3500   18.2000 C.2   317  GLU317      0.3649
    150  OE1        0.4600   34.2700   18.9860 O.co2 317  GLU317     -0.2457
    151  OE2       -0.6470   35.2770   17.3710 O.co2 317  GLU317     -0.2457
@<TRIPOS>BOND
     1    58    57    2
     2    57    56    1
     3    56    59    1
     4    56    55    1
     5    59    60    1
     6    33    32   ar
     7    33    31   ar
     8    32    30   ar
     9    51    50    2
    10    63    61   ar
    11    60    61    1
    12    31    29   ar
    13    30    27   ar
    14    61    62   ar
    15    50    49    1
    16    23    22    2
    17    29    27   ar
    18    29    28   ar
    19    45    44    2
    20    27    25   ar
    21    22    21    1
    22    54    52    1
    23    49    52    1
    24    49    48    1
    25     1     2    1
    26    28    26   ar
    27    44    48   am
    28    44    43    1
    29     2     3    1
    30     2     5    1
    31   146   145    2
    32    25    24    1
    33    25    26   ar
    34   145   144    1
    35    52    53    1
    36    17    16    2
    37    21    24    1
    38    21    20    1
    39     3     4    2
    40    42    43    1
    41    42    40   am
    42    46    47    1
    43    46    43    1
    44    16    20   am
    45    16    15    1
    46   147   144    1
    47   147   148    1
    48     5     6    1
    49   151   149   ar
    50    37    36    2
    51   144   143    1
    52    14    15    1
    53    39    40    1
    54    39    38    1
    55    15    18    1
    56     6     7    1
    57    40    41    2
    58   149   148    1
    59   149   150   ar
    60    12    13    2
    61    12    11    1
    62    36    38   am
    63    36    35    1
    64   132   131    2
    65     7     9   am
    66     7     8    2
    67    34    35    1
    68    10    11    1
    69   131   130    1
    70   129   130    1
    71   128   125    1
    72    18    19    1
    73   130   133    1
    74   127   126    2
    75   126   125    1
    76   125   124    1
    77   133   134    1
    78   135   134   ar
    79   135   137   ar
    80   124   116   am
    81   122   123   ar
    82   122   120   ar
    83   134   136   ar
    84   123   121   ar
    85   137   138   ar
    86   120   119   ar
    87   116   117    2
    88   116   115    1
    89   121   119   ar
    90   136   138   ar
    91   136   139   ar
    92   119   118    1
    93    64    65    1
    94   138   140   ar
    95    69    68    1
    96    68    65    1
    97   115   118    1
    98   115   114    1
    99    65    66    1
   100   139   141   ar
   101   102   100   ar
   102   140   142   ar
   103   113   112    2
   104   114   112   am
   105   112   111    1
   106   141   142   ar
   107    66    67    2
   108    66    70   am
   109   100    99    1
   110   100   101   ar
   111    99    98    1
   112    70    71    1
   113    92    91    1
   114   111   110    1
   115   109   107    1
   116   107   108    1
   117   107   104    1
   118   106   105    2
   119    93    91    1
   120    91    90    1
   121    98    95    1
   122    71    72    1
   123    71    74    1
   124   105   104    1
   125   104   103    1
   126    73    72    2
   127    95    94    1
   128    95    96    1
   129    75    74    1
   130    75    77    1
   131    94    88   am
   132    74    76    1
   133    90    87    1
   134    88    87    1
   135    88    89    2
   136    96    97    2
   137    87    86    1
   138    85    83    1
   139    83    82    1
   140    78    79    1
   141    84    82    1
   142    82    79    1
   143    79    80    1
   144    81    80    2
