@<TRIPOS>MOLECULE
tmp/1tlpA00.pdb
 194 191 0 0 0
SMALL
GASTEIGER

@<TRIPOS>ATOM
      1  N         42.1230   13.7110    2.5160 N.3   110  TYR110     -0.1227
      2  CA        42.8630   13.8800    1.3200 C.3   110  TYR110      0.1736
      3  C         44.3030   14.2160    1.6940 C.2   110  TYR110      0.2595
      4  O         44.4790   15.1930    2.3950 O.2   110  TYR110     -0.2718
      5  CB        42.2200   15.0030    0.4780 C.3   110  TYR110      0.0548
      6  CG        42.8390   15.0630   -0.8980 C.ar  110  TYR110     -0.0200
      7  CD1       42.6480   14.0380   -1.8180 C.ar  110  TYR110     -0.0009
      8  CD2       43.6000   16.1810   -1.2430 C.ar  110  TYR110     -0.0009
      9  CE1       43.2750   14.1340   -3.1070 C.ar  110  TYR110      0.0417
     10  CE2       44.2290   16.2600   -2.5000 C.ar  110  TYR110      0.0417
     11  CZ        44.0610   15.2380   -3.4290 C.ar  110  TYR110      0.1957
     12  OH        44.6440   15.2920   -4.6600 O.3   110  TYR110     -0.2866
     13  N         45.2880   13.3610    1.2960 N.am  111  ASN111     -0.1960
     14  CA        46.7210   13.4540    1.5700 C.3   111  ASN111      0.1819
     15  C         47.4820   14.1890    0.4660 C.2   111  ASN111      0.2621
     16  O         48.4510   13.6750    0.0150 O.2   111  ASN111     -0.2715
     17  CB        47.3020   11.9970    1.6830 C.3   111  ASN111      0.1195
     18  CG        46.9760   11.3350    3.0280 C.2   111  ASN111      0.2630
     19  OD1       47.0470   11.9540    4.0760 O.2   111  ASN111     -0.2716
     20  ND2       46.7320   10.0600    3.0180 N.am  111  ASN111     -0.0877
     21  N         47.0870   15.3790    0.0740 N.am  112  ASN112     -0.1958
     22  CA        47.8120   16.1520   -0.8980 C.3   112  ASN112      0.1819
     23  C         47.2580   17.5840   -0.9240 C.2   112  ASN112      0.2621
     24  O         46.2930   17.8840   -0.2020 O.2   112  ASN112     -0.2715
     25  CB        47.7030   15.4470   -2.2610 C.3   112  ASN112      0.1195
     26  CG        48.9770   15.4780   -3.0920 C.2   112  ASN112      0.2630
     27  OD1       49.6910   16.4700   -3.1550 O.2   112  ASN112     -0.2716
     28  ND2       49.1550   14.4410   -3.8540 N.am  112  ASN112     -0.0877
     29  N         47.9640   18.4490   -1.6670 N.am  113  ALA113     -0.1963
     30  CA        47.7010   19.8500   -1.9170 C.3   113  ALA113      0.1728
     31  C         48.1030   20.0000   -3.3670 C.2   113  ALA113      0.2616
     32  O         48.9140   19.1740   -3.7970 O.2   113  ALA113     -0.2715
     33  CB        48.5610   20.7460   -1.0040 C.3   113  ALA113      0.0334
     34  N         47.5180   20.9940   -4.0790 N.am  114  PHE114     -0.1960
     35  CA        47.7940   21.3410   -5.4430 C.3   114  PHE114      0.1771
     36  C         47.2120   22.6880   -5.8740 C.2   114  PHE114      0.2619
     37  O         46.3210   23.2780   -5.2720 O.2   114  PHE114     -0.2715
     38  CB        47.2880   20.2440   -6.3960 C.3   114  PHE114      0.0574
     39  CG        45.8120   19.9800   -6.1820 C.ar  114  PHE114     -0.0200
     40  CD1       44.9030   20.5150   -7.0900 C.ar  114  PHE114     -0.0042
     41  CD2       45.3780   19.1600   -5.1550 C.ar  114  PHE114     -0.0042
     42  CE1       43.5340   20.2960   -6.9230 C.ar  114  PHE114     -0.0003
     43  CE2       44.0200   18.9160   -4.9840 C.ar  114  PHE114     -0.0003
     44  CZ        43.0570   19.4720   -5.8730 C.ar  114  PHE114     -0.0000
     45  N         47.8550   23.1550   -6.9260 N.am  115  TRP115     -0.1974
     46  CA        47.5540   24.3140   -7.7050 C.3   115  TRP115      0.1640
     47  C         46.7940   23.6710   -8.8440 C.2   115  TRP115      0.2290
     48  O         47.2890   22.7930   -9.5390 O.2   115  TRP115     -0.2864
     49  CB        48.8040   25.0830   -8.2340 C.3   115  TRP115      0.0576
     50  CG        48.3960   26.1340   -9.2060 C.ar  115  TRP115      0.0006
     51  CD1       48.5260   25.9910  -10.5580 C.ar  115  TRP115      0.0946
     52  CD2       47.8160   27.4590   -8.9930 C.ar  115  TRP115      0.0152
     53  NE1       48.0440   27.0690  -11.2180 N.ar  115  TRP115     -0.2442
     54  CE2       47.6150   28.0080  -10.2710 C.ar  115  TRP115      0.0810
     55  CE3       47.4740   28.2420   -7.8560 C.ar  115  TRP115      0.0012
     56  CZ2       47.1140   29.3020  -10.4400 C.ar  115  TRP115      0.0191
     57  CZ3       46.9630   29.5010   -8.0260 C.ar  115  TRP115      0.0001
     58  CH2       46.7820   30.0290   -9.3010 C.ar  115  TRP115      0.0015
     59  N         49.4810    9.8320    7.6740 N.3   129  THR129     -0.1203
     60  CA        50.4700   10.1030    6.6660 C.3   129  THR129      0.1994
     61  C         50.7230   11.6110    6.7040 C.2   129  THR129      0.2617
     62  O         51.8320   12.0740    6.5640 O.2   129  THR129     -0.2717
     63  CB        50.0170    9.6540    5.2270 C.3   129  THR129      0.1784
     64  OG1       49.4380    8.3590    5.2340 O.3   129  THR129     -0.2211
     65  CG2       51.0970    9.7800    4.1060 C.3   129  THR129      0.0376
     66  N         49.6560   12.3690    6.9020 N.am  130  PHE130     -0.1975
     67  CA        49.7530   13.7970    6.8880 C.3   130  PHE130      0.1639
     68  C         48.7120   14.3210    7.7880 C.2   130  PHE130      0.2290
     69  O         47.7240   13.6080    8.0450 O.2   130  PHE130     -0.2864
     70  CB        49.3330   14.3700    5.4940 C.3   130  PHE130      0.0560
     71  CG        50.4450   14.4160    4.4400 C.ar  130  PHE130     -0.0200
     72  CD1       50.4190   13.5350    3.3850 C.ar  130  PHE130     -0.0042
     73  CD2       51.4670   15.3420    4.5310 C.ar  130  PHE130     -0.0042
     74  CE1       51.4060   13.5390    2.3780 C.ar  130  PHE130     -0.0003
     75  CE2       52.4580   15.3580    3.5650 C.ar  130  PHE130     -0.0003
     76  CZ        52.4740   14.4490    2.4810 C.ar  130  PHE130     -0.0000
     77  N         47.7020   19.8770    5.3330 N.3   133  LEU133     -0.1245
     78  CA        48.7690   20.3350    4.5030 C.3   133  LEU133      0.1561
     79  C         49.2120   21.8300    4.5280 C.2   133  LEU133      0.2260
     80  O         50.3690   22.1240    4.2420 O.2   133  LEU133     -0.2867
     81  CB        48.7260   19.6020    3.1350 C.3   133  LEU133      0.0270
     82  CG        49.1100   18.1140    3.2330 C.3   133  LEU133      0.0019
     83  CD1       47.8590   17.2520    3.4800 C.3   133  LEU133      0.0001
     84  CD2       49.7930   17.7150    1.9100 C.3   133  LEU133      0.0001
     85  N         55.2480   23.7870    1.8500 N.3   139  VAL139     -0.1245
     86  CA        54.1400   23.1990    1.1080 C.3   139  VAL139      0.1561
     87  C         53.3370   24.2950    0.3840 C.2   139  VAL139      0.2260
     88  O         53.0970   24.2110   -0.8270 O.2   139  VAL139     -0.2867
     89  CB        53.2490   22.2660    1.9760 C.3   139  VAL139      0.0252
     90  CG1       51.9750   21.8310    1.2350 C.3   139  VAL139      0.0019
     91  CG2       54.0480   21.0340    2.4450 C.3   139  VAL139      0.0019
     92  N         55.4140   26.0070   -2.2390 N.3   142  HIS142     -0.1226
     93  CA        55.6610   25.0990   -3.3400 C.3   142  HIS142      0.1752
     94  C         54.5030   25.1880   -4.3130 C.2   142  HIS142      0.2595
     95  O         54.6320   25.1800   -5.5380 O.2   142  HIS142     -0.2718
     96  CB        55.7750   23.6580   -2.7920 C.3   142  HIS142      0.0759
     97  CG        55.8860   22.5500   -3.8420 C.ar  142  HIS142      0.0818
     98  ND1       57.0250   21.7420   -3.9980 N.ar  142  HIS142     -0.2268
     99  CD2       54.9340   22.1330   -4.7080 C.ar  142  HIS142      0.1154
    100  CE1       56.7410   20.9080   -5.0170 C.ar  142  HIS142      0.1986
    101  NE2       55.4890   21.1130   -5.4570 N.ar  142  HIS142     -0.2212
    102  N         53.3320   25.2740   -3.7370 N.am  143  GLU143     -0.1979
    103  CA        52.0880   25.4060   -4.4880 C.3   143  GLU143      0.1602
    104  C         51.8240   26.7480   -5.2060 C.2   143  GLU143      0.2287
    105  O         51.3940   26.8120   -6.3730 O.2   143  GLU143     -0.2864
    106  CB        50.8660   25.0880   -3.6410 C.3   143  GLU143      0.0415
    107  CG        50.6920   23.5940   -3.1360 C.3   143  GLU143      0.1163
    108  CD        50.9940   22.3960   -4.0250 C.2   143  GLU143      0.3649
    109  OE1       50.9210   22.5060   -5.2790 O.co2 143  GLU143     -0.2457
    110  OE2       51.5500   21.4460   -3.4060 O.co2 143  GLU143     -0.2457
    111  N         53.9620   27.1400   -8.2290 N.3   146  HIS146     -0.1241
    112  CA        53.3990   26.5020   -9.4020 C.3   146  HIS146      0.1621
    113  C         52.6110   27.5050  -10.2050 C.2   146  HIS146      0.2264
    114  O         52.5540   27.3690  -11.4030 O.2   146  HIS146     -0.2867
    115  CB        52.4190   25.3500   -9.0650 C.3   146  HIS146      0.0745
    116  CG        53.0740   23.9890   -8.9300 C.ar  146  HIS146      0.0817
    117  ND1       54.0280   23.4840   -9.8380 N.ar  146  HIS146     -0.2268
    118  CD2       52.8810   23.0790   -7.9660 C.ar  146  HIS146      0.1154
    119  CE1       54.3940   22.3040   -9.3570 C.ar  146  HIS146      0.1986
    120  NE2       53.7340   22.0300   -8.2200 N.ar  146  HIS146     -0.2212
    121  N         53.8150   19.7510  -17.5120 N.3   157  TYR157     -0.1241
    122  CA        53.8640   18.8430  -16.3850 C.3   157  TYR157      0.1605
    123  C         54.1980   17.3790  -16.7180 C.2   157  TYR157      0.2264
    124  O         53.5120   16.4430  -16.3310 O.2   157  TYR157     -0.2867
    125  CB        52.6480   19.0640  -15.4390 C.3   157  TYR157      0.0534
    126  CG        52.9480   18.8130  -13.9240 C.ar  157  TYR157     -0.0201
    127  CD1       52.2710   17.7640  -13.2890 C.ar  157  TYR157     -0.0009
    128  CD2       53.8660   19.5460  -13.1920 C.ar  157  TYR157     -0.0009
    129  CE1       52.4900   17.4550  -11.9540 C.ar  157  TYR157      0.0417
    130  CE2       54.1060   19.2430  -11.8360 C.ar  157  TYR157      0.0417
    131  CZ        53.4300   18.2030  -11.2030 C.ar  157  TYR157      0.1957
    132  OH        53.5720   17.8950   -9.8930 O.3   157  TYR157     -0.2866
    133  N         58.6950   20.8550  -10.8240 N.3   166  GLU166     -0.1245
    134  CA        58.6960   20.3440   -9.4420 C.3   166  GLU166      0.1567
    135  C         59.8280   20.8530   -8.5900 C.2   166  GLU166      0.2260
    136  O         59.5740   21.3080   -7.5120 O.2   166  GLU166     -0.2867
    137  CB        58.6570   18.8010   -9.3970 C.3   166  GLU166      0.0388
    138  CG        57.2300   18.2830   -9.5630 C.3   166  GLU166      0.1160
    139  CD        56.3470   18.8660   -8.4680 C.2   166  GLU166      0.3649
    140  OE1       55.2770   19.3740   -8.7700 O.co2 166  GLU166     -0.2457
    141  OE2       56.7510   18.8230   -7.3180 O.co2 166  GLU166     -0.2457
    142  N         61.6200   18.7690    2.4680 N.3   188  ILE188     -0.1245
    143  CA        60.2520   19.0610    2.0010 C.3   188  ILE188      0.1561
    144  C         59.0960   18.3370    2.7580 C.2   188  ILE188      0.2260
    145  O         58.9600   17.1130    2.7370 O.2   188  ILE188     -0.2867
    146  CB        60.0250   18.9630    0.4600 C.3   188  ILE188      0.0252
    147  CG1       61.0840   19.7570   -0.3480 C.3   188  ILE188      0.0019
    148  CG2       58.5650   19.3110    0.0240 C.3   188  ILE188      0.0019
    149  CD1       61.1680   21.2670   -0.1020 C.3   188  ILE188      0.0001
    150  N         59.0720   14.3440    3.2340 N.3   202  LEU202     -0.1231
    151  CA        58.5710   13.7670    1.9870 C.3   202  LEU202      0.1693
    152  C         59.7050   13.5720    0.9550 C.2   202  LEU202      0.2591
    153  O         59.7650   12.5430    0.2750 O.2   202  LEU202     -0.2718
    154  CB        57.4900   14.7480    1.5090 C.3   202  LEU202      0.0284
    155  CG        56.5790   14.3650    0.3460 C.3   202  LEU202      0.0019
    156  CD1       55.8090   13.1220    0.7580 C.3   202  LEU202      0.0001
    157  CD2       55.5660   15.5180    0.1890 C.3   202  LEU202      0.0001
    158  N         60.5880   14.5830    0.8550 N.am  203  ARG203     -0.1980
    159  CA        61.7430   14.5950   -0.0010 C.3   203  ARG203      0.1597
    160  C         62.8400   15.3910    0.6820 C.2   203  ARG203      0.2287
    161  O         62.5450   16.2570    1.5320 O.2   203  ARG203     -0.2864
    162  CB        61.5190   15.3270   -1.3160 C.3   203  ARG203      0.0334
    163  CG        60.4510   14.7280   -2.2330 C.3   203  ARG203      0.0492
    164  CD        60.3300   15.5630   -3.5170 C.3   203  ARG203      0.2205
    165  NE        59.5370   16.8280   -3.4910 N.pl3 203  ARG203     -0.0865
    166  CZ        58.1720   16.9130   -3.5120 C.cat 203  ARG203      0.5346
    167  NH1       57.4200   15.8360   -3.5010 N.pl3 203  ARG203      0.1354
    168  NH2       57.5010   18.0920   -3.5650 N.pl3 203  ARG203      0.1354
    169  N         54.1110    8.7300  -12.4370 N.3   226  ASP226     -0.1225
    170  CA        54.2720   10.0840  -11.9260 C.3   226  ASP226      0.1805
    171  C         54.5830   11.0620  -13.0400 C.2   226  ASP226      0.2597
    172  O         55.5050   11.8570  -12.9480 O.2   226  ASP226     -0.2718
    173  CB        55.3400   10.0820  -10.8100 C.3   226  ASP226      0.1424
    174  CG        55.6370   11.3870  -10.0860 C.2   226  ASP226      0.3668
    175  OD1       54.7070   12.1400   -9.7460 O.co2 226  ASP226     -0.2456
    176  OD2       56.8220   11.5430   -9.7770 O.co2 226  ASP226     -0.2456
    177  N         53.8210   10.9700  -14.1160 N.am  227  ASN227     -0.1974
    178  CA        54.0110   11.7880  -15.3130 C.3   227  ASN227      0.1688
    179  C         55.4300   11.7220  -15.8660 C.2   227  ASN227      0.2292
    180  O         55.9390   12.7030  -16.4780 O.2   227  ASN227     -0.2864
    181  CB        53.5270   13.2440  -15.1530 C.3   227  ASN227      0.1181
    182  CG        52.0100   13.3670  -14.9980 C.2   227  ASN227      0.2629
    183  OD1       51.5020   13.8200  -13.9470 O.2   227  ASN227     -0.2716
    184  ND2       51.2960   12.8980  -16.0250 N.am  227  ASN227     -0.0877
    185  N         58.1180   14.0080   -9.8310 N.3   231  HIS231     -0.1241
    186  CA        58.4710   14.1240   -8.3980 C.3   231  HIS231      0.1621
    187  C         59.6860   13.2880   -8.0160 C.2   231  HIS231      0.2264
    188  O         60.1650   13.3780   -6.9010 O.2   231  HIS231     -0.2867
    189  CB        57.3250   13.8280   -7.3840 C.3   231  HIS231      0.0745
    190  CG        56.1030   14.7080   -7.5330 C.ar  231  HIS231      0.0817
    191  ND1       55.0460   14.3290   -8.3510 N.ar  231  HIS231     -0.2268
    192  CD2       55.8470   15.9260   -6.9860 C.ar  231  HIS231      0.1154
    193  CE1       54.1730   15.3080   -8.2590 C.ar  231  HIS231      0.1986
    194  NE2       54.6030   16.2790   -7.4440 N.ar  231  HIS231     -0.2212
@<TRIPOS>BOND
     1   121   122    1
     2   123   122    1
     3   123   124    2
     4   180   179    2
     5   122   125    1
     6   184   182   am
     7   179   178    1
     8   125   126    1
     9   178   181    1
    10   178   177    1
    11   181   182    1
    12   182   183    2
    13   177   171   am
    14   126   127   ar
    15   126   128   ar
    16   127   129   ar
    17   128   130   ar
    18   171   172    2
    19   171   170    1
    20   169   170    1
    21   129   131   ar
    22   170   173    1
    23   130   131   ar
    24   114   113    2
    25    53    51   ar
    26    53    54   ar
    27   131   132    1
    28   133   134    1
    29   173   174    1
    30    51    50   ar
    31    56    54   ar
    32    56    58   ar
    33    54    52   ar
    34   113   112    1
    35   174   176   ar
    36   174   175   ar
    37   117   119   ar
    38   117   116   ar
    39   185   186    1
    40   138   137    1
    41   138   139    1
    42    48    47    2
    43   134   137    1
    44   134   135    1
    45   112   115    1
    46   112   111    1
    47   119   120   ar
    48    58    57   ar
    49    50    52   ar
    50    50    49    1
    51   115   116    1
    52    52    55   ar
    53   116   118   ar
    54    47    46    1
    55   140   139   ar
    56   135   136    2
    57   139   141   ar
    58   186   187    1
    59   186   189    1
    60   191   193   ar
    61   191   190   ar
    62   193   194   ar
    63    49    46    1
    64   120   118   ar
    65    57    55   ar
    66   187   188    2
    67    46    45    1
    68   190   189    1
    69   190   192   ar
    70   194   192   ar
    71    40    42   ar
    72    40    39   ar
    73    45    36   am
    74    42    44   ar
    75    38    39    1
    76    38    35    1
    77   105   104    2
    78    39    41   ar
    79    36    35    1
    80    36    37    2
    81    44    43   ar
    82    95    94    2
    83   101   100   ar
    84   101    99   ar
    85    35    34    1
    86   109   108   ar
    87   104   103    1
    88    41    43   ar
    89   100    98   ar
    90    99    97   ar
    91    12    11    1
    92   103   102    1
    93   103   106    1
    94    94   102   am
    95    94    93    1
    96    34    31   am
    97   108   110   ar
    98   108   107    1
    99    98    97   ar
   100    28    26   am
   101    97    96    1
   102    32    31    2
   103   106   107    1
   104   168   166    1
   105   164   165    1
   106   164   163    1
   107   166   167    1
   108   166   165    2
   109    11     9   ar
   110    11    10   ar
   111    31    30    1
   112    93    96    1
   113    93    92    1
   114    27    26    2
   115     9     7   ar
   116    26    25    1
   117    10     8   ar
   118    25    22    1
   119   163   162    1
   120    30    29    1
   121    30    33    1
   122     7     6   ar
   123    29    23   am
   124   162   159    1
   125     8     6   ar
   126    23    22    1
   127    23    24    2
   128     6     5    1
   129    22    21    1
   130    88    87    2
   131   147   149    1
   132   147   146    1
   133   159   160    1
   134   159   158    1
   135    16    15    2
   136   148   146    1
   137    21    15   am
   138   157   155    1
   139   153   152    2
   140   155   156    1
   141   155   154    1
   142    87    86    1
   143   146   143    1
   144    15    14    1
   145     5     2    1
   146   160   161    2
   147   158   152   am
   148   152   151    1
   149    86    85    1
   150    86    89    1
   151    90    89    1
   152    13    14    1
   153    13     3   am
   154     2     3    1
   155     2     1    1
   156   154   151    1
   157    14    17    1
   158    17    18    1
   159     3     4    2
   160    84    82    1
   161    89    91    1
   162   151   150    1
   163   143   142    1
   164   143   144    1
   165    74    76   ar
   166    74    72   ar
   167    76    75   ar
   168   145   144    2
   169    20    18   am
   170    18    19    2
   171    81    82    1
   172    81    78    1
   173    82    83    1
   174    72    71   ar
   175    75    73   ar
   176    65    63    1
   177    80    79    2
   178    71    73   ar
   179    71    70    1
   180    78    79    1
   181    78    77    1
   182    63    64    1
   183    63    60    1
   184    70    67    1
   185    62    61    2
   186    60    61    1
   187    60    59    1
   188    61    66   am
   189    67    66    1
   190    67    68    1
   191    68    69    2
