@<TRIPOS>MOLECULE
tmp/1tlwA01.pdb
 166 153 0 0 0
SMALL
GASTEIGER

@<TRIPOS>ATOM
      1  N        -13.1230   88.5070  -14.5110 N.3    12  VAL12      -0.1245
      2  CA       -14.3950   88.6940  -13.8390 C.3    12  VAL12       0.1561
      3  C        -14.9900   90.0130  -14.2140 C.2    12  VAL12       0.2260
      4  O        -14.2850   91.0130  -14.2850 O.2    12  VAL12      -0.2867
      5  CB       -14.2580   88.7020  -12.2930 C.3    12  VAL12       0.0252
      6  CG1      -15.6350   88.6800  -11.6690 C.3    12  VAL12       0.0019
      7  CG2      -13.4170   87.5300  -11.8050 C.3    12  VAL12       0.0019
      8  N        -11.8200   92.4640  -14.2330 N.3    28  TYR28      -0.1241
      9  CA       -10.4600   92.2460  -13.8180 C.3    28  TYR28       0.1605
     10  C         -9.9610   90.8130  -13.8560 C.2    28  TYR28       0.2264
     11  O        -10.7360   89.8690  -14.0070 O.2    28  TYR28      -0.2867
     12  CB       -10.3050   92.8110  -12.4210 C.3    28  TYR28       0.0534
     13  CG       -11.3850   92.3780  -11.4520 C.ar   28  TYR28      -0.0201
     14  CD1      -11.5830   91.0360  -11.1520 C.ar   28  TYR28      -0.0009
     15  CD2      -12.1700   93.3200  -10.7920 C.ar   28  TYR28      -0.0009
     16  CE1      -12.5340   90.6340  -10.2120 C.ar   28  TYR28       0.0417
     17  CE2      -13.1270   92.9340   -9.8440 C.ar   28  TYR28       0.0417
     18  CZ       -13.3010   91.5870   -9.5570 C.ar   28  TYR28       0.1957
     19  OH       -14.2150   91.1920   -8.5970 O.3    28  TYR28      -0.2866
     20  N         -8.2340   87.5320  -12.1530 N.3    30  GLU30      -0.1245
     21  CA        -8.3100   86.9930  -10.8280 C.3    30  GLU30       0.1567
     22  C         -7.5360   85.7150  -10.7740 C.2    30  GLU30       0.2260
     23  O         -7.4960   84.9520  -11.7470 O.2    30  GLU30      -0.2867
     24  CB        -9.7630   86.7180  -10.4530 C.3    30  GLU30       0.0388
     25  CG        -9.9680   86.3130   -9.0010 C.3    30  GLU30       0.1160
     26  CD       -11.4180   86.0490   -8.6750 C.2    30  GLU30       0.3649
     27  OE1      -11.9420   85.0120   -9.1310 O.co2  30  GLU30      -0.2457
     28  OE2      -12.0310   86.8840   -7.9750 O.co2  30  GLU30      -0.2457
     29  N         -7.3500   82.3930   -8.4560 N.3    32  GLU32      -0.1245
     30  CA        -8.0420   81.6040   -7.4380 C.3    32  GLU32       0.1567
     31  C         -7.2240   80.3810   -7.0640 C.2    32  GLU32       0.2260
     32  O         -6.4230   79.9070   -7.8650 O.2    32  GLU32      -0.2867
     33  CB        -9.3730   81.1100   -7.9810 C.3    32  GLU32       0.0388
     34  CG       -10.5660   81.6480   -7.3090 C.3    32  GLU32       0.1160
     35  CD       -11.7990   80.9570   -7.7880 C.2    32  GLU32       0.3649
     36  OE1      -11.9010   80.7130   -9.0110 O.co2  32  GLU32      -0.2457
     37  OE2      -12.6700   80.6630   -6.9440 O.co2  32  GLU32      -0.2457
     38  N         -8.9200   78.4100    0.7860 N.3    43  TYR43      -0.1241
     39  CA        -9.5560   79.0110   -0.3650 C.3    43  TYR43       0.1605
     40  C         -9.1260   80.4540   -0.3770 C.2    43  TYR43       0.2264
     41  O         -9.0710   81.0790    0.6740 O.2    43  TYR43      -0.2867
     42  CB       -11.0720   78.9980   -0.2950 C.3    43  TYR43       0.0534
     43  CG       -11.6470   79.7750   -1.4580 C.ar   43  TYR43      -0.0201
     44  CD1      -11.6020   79.2480   -2.7510 C.ar   43  TYR43      -0.0009
     45  CD2      -12.0880   81.0840   -1.3010 C.ar   43  TYR43      -0.0009
     46  CE1      -11.9670   80.0040   -3.8520 C.ar   43  TYR43       0.0417
     47  CE2      -12.4540   81.8500   -2.4010 C.ar   43  TYR43       0.0417
     48  CZ       -12.3850   81.3020   -3.6740 C.ar   43  TYR43       0.1957
     49  OH       -12.6950   82.0560   -4.7790 O.3    43  TYR43      -0.2866
     50  N         -8.3220   84.2250   -3.1390 N.3    45  TYR45      -0.1241
     51  CA        -8.2520   84.8170   -4.4560 C.3    45  TYR45       0.1605
     52  C         -7.6120   86.1950   -4.4530 C.2    45  TYR45       0.2264
     53  O         -7.5940   86.8860   -3.4460 O.2    45  TYR45      -0.2867
     54  CB        -9.6590   84.8730   -5.0840 C.3    45  TYR45       0.0534
     55  CG       -10.6330   85.8150   -4.4180 C.ar   45  TYR45      -0.0201
     56  CD1      -10.7820   87.1270   -4.8540 C.ar   45  TYR45      -0.0009
     57  CD2      -11.3700   85.4060   -3.3250 C.ar   45  TYR45      -0.0009
     58  CE1      -11.6320   88.0040   -4.2080 C.ar   45  TYR45       0.0417
     59  CE2      -12.2200   86.2660   -2.6720 C.ar   45  TYR45       0.0417
     60  CZ       -12.3500   87.5680   -3.1070 C.ar   45  TYR45       0.1957
     61  OH       -13.1750   88.4260   -2.4020 O.3    45  TYR45      -0.2866
     62  N         -7.4320   89.7600   -6.9660 N.3    47  ASP47      -0.1239
     63  CA        -7.9780   90.4830   -8.1080 C.3    47  ASP47       0.1674
     64  C         -7.0420   91.6070   -8.5230 C.2    47  ASP47       0.2266
     65  O         -6.3740   92.2080   -7.6890 O.2    47  ASP47      -0.2867
     66  CB        -9.3460   91.0930   -7.7820 C.3    47  ASP47       0.1410
     67  CG       -10.4200   90.0530   -7.5820 C.2    47  ASP47       0.3668
     68  OD1      -10.4150   89.0440   -8.3160 O.co2  47  ASP47      -0.2456
     69  OD2      -11.2860   90.2540   -6.6990 O.co2  47  ASP47      -0.2456
     70  N         -8.1800   88.0170   -0.8620 N.3    55  GLU55      -0.1245
     71  CA        -8.9230   87.5190    0.2830 C.3    55  GLU55       0.1567
     72  C         -8.5600   86.0550    0.3700 C.2    55  GLU55       0.2260
     73  O         -8.7630   85.3160   -0.5830 O.2    55  GLU55      -0.2867
     74  CB       -10.4290   87.6650    0.0710 C.3    55  GLU55       0.0388
     75  CG       -11.2510   87.1840    1.2540 C.3    55  GLU55       0.1160
     76  CD       -12.7500   87.3650    1.0530 C.2    55  GLU55       0.3649
     77  OE1      -13.5240   87.0720    2.0050 O.co2  55  GLU55      -0.2457
     78  OE2      -13.1510   87.7980   -0.0570 O.co2  55  GLU55      -0.2457
     79  N         -8.6670   82.4370    2.8170 N.3    57  GLU57      -0.1245
     80  CA        -9.4180   81.7780    3.8640 C.3    57  GLU57       0.1567
     81  C         -8.6850   80.5160    4.2890 C.2    57  GLU57       0.2260
     82  O         -9.0050   79.4270    3.8420 O.2    57  GLU57      -0.2867
     83  CB       -10.8220   81.4070    3.3660 C.3    57  GLU57       0.0388
     84  CG       -11.8590   82.5280    3.3540 C.3    57  GLU57       0.1160
     85  CD       -13.2300   82.0390    2.9090 C.2    57  GLU57       0.3649
     86  OE1      -13.5780   80.8910    3.2560 O.co2  57  GLU57      -0.2457
     87  OE2      -13.9590   82.7970    2.2280 O.co2  57  GLU57      -0.2457
     88  N        -20.8950   78.6610    4.5340 N.3   144  LYS144     -0.1245
     89  CA       -20.7530   78.3900    3.1150 C.3   144  LYS144      0.1561
     90  C        -21.0920   76.9630    2.7990 C.2   144  LYS144      0.2260
     91  O        -20.8540   76.0700    3.6020 O.2   144  LYS144     -0.2867
     92  CB       -19.3450   78.7190    2.6030 C.3   144  LYS144      0.0271
     93  CG       -18.1890   78.2220    3.4240 C.3   144  LYS144      0.0035
     94  CD       -16.9100   78.2840    2.6190 C.3   144  LYS144      0.0206
     95  CE       -16.6680   79.6380    1.9920 C.3   144  LYS144      0.1093
     96  NZ       -15.4610   79.5760    1.1200 N.3   144  LYS144     -0.1314
     97  N        -22.7930   77.1070   -5.4870 N.3   160  ILE160     -0.1245
     98  CA       -21.9830   77.4610   -4.3430 C.3   160  ILE160      0.1561
     99  C        -22.6130   78.6650   -3.7120 C.2   160  ILE160      0.2260
    100  O        -22.9230   79.6420   -4.3970 O.2   160  ILE160     -0.2867
    101  CB       -20.5610   77.8720   -4.7040 C.3   160  ILE160      0.0252
    102  CG1      -19.8450   76.7580   -5.4460 C.3   160  ILE160      0.0019
    103  CG2      -19.8140   78.2300   -3.4300 C.3   160  ILE160      0.0019
    104  CD1      -18.4610   77.1500   -5.8450 C.3   160  ILE160      0.0001
    105  N        -22.4470   81.2030   -0.0390 N.3   162  PHE162     -0.1241
    106  CA       -21.7880   81.5600    1.2040 C.3   162  PHE162      0.1605
    107  C        -22.2380   82.9450    1.6140 C.2   162  PHE162      0.2264
    108  O        -22.5500   83.7830    0.7650 O.2   162  PHE162     -0.2867
    109  CB       -20.2730   81.4930    1.0630 C.3   162  PHE162      0.0534
    110  CG       -19.7170   82.2880   -0.0800 C.ar  162  PHE162     -0.0203
    111  CD1      -19.5270   83.6580    0.0310 C.ar  162  PHE162     -0.0042
    112  CD2      -19.3060   81.6490   -1.2500 C.ar  162  PHE162     -0.0042
    113  CE1      -18.9280   84.3790   -1.0020 C.ar  162  PHE162     -0.0003
    114  CE2      -18.7080   82.3640   -2.2850 C.ar  162  PHE162     -0.0003
    115  CZ       -18.5170   83.7310   -2.1590 C.ar  162  PHE162     -0.0000
    116  N        -23.8200   81.3750   -6.2440 N.3   195  ILE195     -0.1245
    117  CA       -23.0930   81.0480   -7.4570 C.3   195  ILE195      0.1561
    118  C        -23.5710   79.7910   -8.1660 C.2   195  ILE195      0.2260
    119  O        -23.7690   78.7400   -7.5520 O.2   195  ILE195     -0.2867
    120  CB       -21.5790   80.8910   -7.1480 C.3   195  ILE195      0.0252
    121  CG1      -21.0620   82.1450   -6.4270 C.3   195  ILE195      0.0019
    122  CG2      -20.8100   80.6700   -8.4330 C.3   195  ILE195      0.0019
    123  CD1      -19.5910   82.1190   -6.1240 C.3   195  ILE195      0.0001
    124  N        -19.1530   81.0040  -14.4770 N.3   206  SER206     -0.1217
    125  CA       -19.9740   81.1180  -13.2660 C.3   206  SER206      0.1889
    126  C        -20.8180   82.3720  -13.2290 C.2   206  SER206      0.2288
    127  O        -20.3530   83.4560  -13.5640 O.2   206  SER206     -0.2866
    128  CB       -19.0850   81.1280  -12.0210 C.3   206  SER206      0.2089
    129  OG       -18.1960   80.0270  -11.9980 O.3   206  SER206     -0.2183
    130  N        -22.7760   84.9070  -10.7710 N.3   208  VAL208     -0.1245
    131  CA       -22.8390   85.2040   -9.3480 C.3   208  VAL208      0.1561
    132  C        -23.7930   86.3240   -8.9460 C.2   208  VAL208      0.2260
    133  O        -23.6630   87.4700   -9.3770 O.2   208  VAL208     -0.2867
    134  CB       -21.4300   85.5220   -8.7800 C.3   208  VAL208      0.0252
    135  CG1      -21.5050   85.6950   -7.2840 C.3   208  VAL208      0.0019
    136  CG2      -20.4710   84.4000   -9.1080 C.3   208  VAL208      0.0019
    137  N        -25.1710   88.5270   -5.8680 N.3   210  ARG210     -0.1245
    138  CA       -24.7100   88.8850   -4.5450 C.3   210  ARG210      0.1563
    139  C        -25.5190   90.0110   -3.9690 C.2   210  ARG210      0.2260
    140  O        -25.7720   91.0190   -4.6260 O.2   210  ARG210     -0.2867
    141  CB       -23.2320   89.2520   -4.5920 C.3   210  ARG210      0.0307
    142  CG       -22.6650   89.7780   -3.3000 C.3   210  ARG210      0.0489
    143  CD       -21.1860   89.9790   -3.4470 C.3   210  ARG210      0.2205
    144  NE       -20.4680   88.7230   -3.3320 N.pl3 210  ARG210     -0.0865
    145  CZ       -19.1940   88.5650   -3.6680 C.cat 210  ARG210      0.5346
    146  NH1      -18.4930   89.5940   -4.1550 N.pl3 210  ARG210      0.1354
    147  NH2      -18.6190   87.3810   -3.4990 N.pl3 210  ARG210      0.1354
    148  N        -21.8330   89.0880  -10.6790 N.3   241  TYR241     -0.1241
    149  CA       -20.5720   88.8920  -11.3520 C.3   241  TYR241      0.1605
    150  C        -20.6880   87.8170  -12.4260 C.2   241  TYR241      0.2264
    151  O        -21.4610   86.8630  -12.2880 O.2   241  TYR241     -0.2867
    152  CB       -19.5050   88.4470  -10.3590 C.3   241  TYR241      0.0534
    153  CG       -19.3160   89.3450   -9.1610 C.ar  241  TYR241     -0.0201
    154  CD1      -20.1910   89.3010   -8.0800 C.ar  241  TYR241     -0.0009
    155  CD2      -18.2280   90.2130   -9.0880 C.ar  241  TYR241     -0.0009
    156  CE1      -19.9780   90.0970   -6.9510 C.ar  241  TYR241      0.0417
    157  CE2      -18.0110   91.0020   -7.9790 C.ar  241  TYR241      0.0417
    158  CZ       -18.8800   90.9440   -6.9070 C.ar  241  TYR241      0.1957
    159  OH       -18.6250   91.7110   -5.7820 O.3   241  TYR241     -0.2866
    160  N        -18.1750   85.2400  -14.4360 N.3   243  VAL243     -0.1245
    161  CA       -16.8150   84.7340  -14.2920 C.3   243  VAL243      0.1561
    162  C        -16.3850   83.6750  -15.2950 C.2   243  VAL243      0.2260
    163  O        -17.0180   82.6190  -15.4200 O.2   243  VAL243     -0.2867
    164  CB       -16.5850   84.1500  -12.8680 C.3   243  VAL243      0.0252
    165  CG1      -15.1930   83.5560  -12.7640 C.3   243  VAL243      0.0019
    166  CG2      -16.7460   85.2410  -11.8180 C.3   243  VAL243      0.0019
@<TRIPOS>BOND
     1   163   162    2
     2   162   161    1
     3     1     2    1
     4   124   125    1
     5   160   161    1
     6   161   164    1
     7     4     3    2
     8     8     9    1
     9     3     2    1
    10    11    10    2
    11    10     9    1
    12     2     5    1
    13     9    12    1
    14   127   126    2
    15   125   126    1
    16   125   128    1
    17   164   165    1
    18   164   166    1
    19   150   151    2
    20   150   149    1
    21    12    13    1
    22     5     7    1
    23     5     6    1
    24    20    21    1
    25   128   129    1
    26    23    22    2
    27    13    14   ar
    28    13    15   ar
    29   149   148    1
    30   149   152    1
    31    14    16   ar
    32    21    22    1
    33    21    24    1
    34    15    17   ar
    35   130   131    1
    36    24    25    1
    37   152   153    1
    38    16    18   ar
    39    17    18   ar
    40    18    19    1
    41   133   132    2
    42   131   132    1
    43   131   134    1
    44   153   155   ar
    45   153   154   ar
    46    27    26   ar
    47   136   134    1
    48   155   157   ar
    49    36    35   ar
    50    25    26    1
    51   134   135    1
    52    26    28   ar
    53    64    63    1
    54    64    65    2
    55    29    30    1
    56   122   120    1
    57    68    67   ar
    58   118   119    2
    59   118   117    1
    60    63    66    1
    61    63    62    1
    62   154   156   ar
    63    33    30    1
    64    33    34    1
    65   157   158   ar
    66    32    31    2
    67    35    34    1
    68    35    37   ar
    69    66    67    1
    70    67    69   ar
    71   117   120    1
    72   117   116    1
    73    30    31    1
    74   120   121    1
    75   156   158   ar
    76   158   159    1
    77   121   123    1
    78   137   138    1
    79   104   102    1
    80    97    98    1
    81   102   101    1
    82    54    51    1
    83    54    55    1
    84    56    55   ar
    85    56    58   ar
    86    49    48    1
    87   101    98    1
    88   101   103    1
    89   140   139    2
    90   141   138    1
    91   141   142    1
    92   138   139    1
    93    51    52    1
    94    51    50    1
    95    52    53    2
    96    55    57   ar
    97   100    99    2
    98    98    99    1
    99    58    60   ar
   100   146   145    1
   101    46    48   ar
   102    46    44   ar
   103    48    47   ar
   104   145   147    1
   105   145   144    2
   106   143   144    1
   107   143   142    1
   108    57    59   ar
   109    60    59   ar
   110    60    61    1
   111    44    43   ar
   112    47    45   ar
   113   114   115   ar
   114   114   112   ar
   115   115   113   ar
   116    43    45   ar
   117    43    42    1
   118   112   110   ar
   119   113   111   ar
   120    70    71    1
   121    73    72    2
   122    40    39    1
   123    40    41    2
   124    39    42    1
   125    39    38    1
   126   110   111   ar
   127   110   109    1
   128    78    76   ar
   129   105   106    1
   130    74    71    1
   131    74    75    1
   132    71    72    1
   133   108   107    2
   134    76    75    1
   135    76    77   ar
   136   109   106    1
   137    96    95    1
   138   106   107    1
   139    95    94    1
   140    87    85   ar
   141    92    89    1
   142    92    93    1
   143    94    93    1
   144    90    89    1
   145    90    91    2
   146    79    80    1
   147    85    86   ar
   148    85    84    1
   149    89    88    1
   150    84    83    1
   151    83    80    1
   152    82    81    2
   153    80    81    1
