@<TRIPOS>MOLECULE
tmp/1tlwA00.pdb
 152 143 0 0 0
SMALL
GASTEIGER

@<TRIPOS>ATOM
      1  N        -21.6670   96.3810   -7.6670 N.3    17  THR17      -0.1218
      2  CA       -20.9460   95.9310   -6.4850 C.3    17  THR17       0.1862
      3  C        -21.2730   96.8990   -5.3520 C.2    17  THR17       0.2287
      4  O        -21.4500   98.0810   -5.6070 O.2    17  THR17      -0.2866
      5  CB       -19.4580   95.9930   -6.7690 C.3    17  THR17       0.1770
      6  OG1      -19.0890   94.8390   -7.5210 O.3    17  THR17      -0.2211
      7  CG2      -18.6360   96.0940   -5.4710 C.3    17  THR17       0.0375
      8  N        -19.4860   97.1400   -1.8910 N.3    19  PHE19      -0.1241
      9  CA       -18.5810   97.2370   -0.7370 C.3    19  PHE19       0.1605
     10  C        -18.1190   98.6780   -0.4550 C.2    19  PHE19       0.2264
     11  O        -17.5240   98.9280    0.5820 O.2    19  PHE19      -0.2867
     12  CB       -17.3260   96.3780   -0.9380 C.3    19  PHE19       0.0534
     13  CG       -17.5960   94.9150   -1.0330 C.ar   19  PHE19      -0.0203
     14  CD1      -17.9990   94.3440   -2.2260 C.ar   19  PHE19      -0.0042
     15  CD2      -17.4590   94.1070    0.0760 C.ar   19  PHE19      -0.0042
     16  CE1      -18.2580   92.9830   -2.3030 C.ar   19  PHE19      -0.0003
     17  CE2      -17.7180   92.7590    0.0010 C.ar   19  PHE19      -0.0003
     18  CZ       -18.1160   92.2000   -1.1880 C.ar   19  PHE19      -0.0000
     19  N        -20.3870  100.3110   -8.0070 N.3    24  ARG24      -0.1245
     20  CA       -19.3210  100.0370   -8.9530 C.3    24  ARG24       0.1563
     21  C        -19.5420   98.8390   -9.8400 C.2    24  ARG24       0.2260
     22  O        -20.2330   97.9040   -9.4720 O.2    24  ARG24      -0.2867
     23  CB       -18.0220   99.8380   -8.2060 C.3    24  ARG24       0.0307
     24  CG       -17.7300  100.9160   -7.2260 C.3    24  ARG24       0.0489
     25  CD       -16.3680  100.6910   -6.6720 C.3    24  ARG24       0.2205
     26  NE       -15.3650  100.8020   -7.7270 N.pl3  24  ARG24      -0.0865
     27  CZ       -14.1510  100.2570   -7.6740 C.cat  24  ARG24       0.5346
     28  NH1      -13.7800   99.5470   -6.6110 N.pl3  24  ARG24       0.1354
     29  NH2      -13.3040  100.4400   -8.6840 N.pl3  24  ARG24       0.1354
     30  N        -11.8200   92.4640  -14.2330 N.3    28  TYR28      -0.1241
     31  CA       -10.4600   92.2460  -13.8180 C.3    28  TYR28       0.1605
     32  C         -9.9610   90.8130  -13.8560 C.2    28  TYR28       0.2264
     33  O        -10.7360   89.8690  -14.0070 O.2    28  TYR28      -0.2867
     34  CB       -10.3050   92.8110  -12.4210 C.3    28  TYR28       0.0534
     35  CG       -11.3850   92.3780  -11.4520 C.ar   28  TYR28      -0.0201
     36  CD1      -11.5830   91.0360  -11.1520 C.ar   28  TYR28      -0.0009
     37  CD2      -12.1700   93.3200  -10.7920 C.ar   28  TYR28      -0.0009
     38  CE1      -12.5340   90.6340  -10.2120 C.ar   28  TYR28       0.0417
     39  CE2      -13.1270   92.9340   -9.8440 C.ar   28  TYR28       0.0417
     40  CZ       -13.3010   91.5870   -9.5570 C.ar   28  TYR28       0.1957
     41  OH       -14.2150   91.1920   -8.5970 O.3    28  TYR28      -0.2866
     42  N         -8.3220   84.2250   -3.1390 N.3    45  TYR45      -0.1241
     43  CA        -8.2520   84.8170   -4.4560 C.3    45  TYR45       0.1605
     44  C         -7.6120   86.1950   -4.4530 C.2    45  TYR45       0.2264
     45  O         -7.5940   86.8860   -3.4460 O.2    45  TYR45      -0.2867
     46  CB        -9.6590   84.8730   -5.0840 C.3    45  TYR45       0.0534
     47  CG       -10.6330   85.8150   -4.4180 C.ar   45  TYR45      -0.0201
     48  CD1      -10.7820   87.1270   -4.8540 C.ar   45  TYR45      -0.0009
     49  CD2      -11.3700   85.4060   -3.3250 C.ar   45  TYR45      -0.0009
     50  CE1      -11.6320   88.0040   -4.2080 C.ar   45  TYR45       0.0417
     51  CE2      -12.2200   86.2660   -2.6720 C.ar   45  TYR45       0.0417
     52  CZ       -12.3500   87.5680   -3.1070 C.ar   45  TYR45       0.1957
     53  OH       -13.1750   88.4260   -2.4020 O.3    45  TYR45      -0.2866
     54  N         -7.4320   89.7600   -6.9660 N.3    47  ASP47      -0.1239
     55  CA        -7.9780   90.4830   -8.1080 C.3    47  ASP47       0.1674
     56  C         -7.0420   91.6070   -8.5230 C.2    47  ASP47       0.2266
     57  O         -6.3740   92.2080   -7.6890 O.2    47  ASP47      -0.2867
     58  CB        -9.3460   91.0930   -7.7820 C.3    47  ASP47       0.1410
     59  CG       -10.4200   90.0530   -7.5820 C.2    47  ASP47       0.3668
     60  OD1      -10.4150   89.0440   -8.3160 O.co2  47  ASP47      -0.2456
     61  OD2      -11.2860   90.2540   -6.6990 O.co2  47  ASP47      -0.2456
     62  N         -6.0110   93.2820   -4.8740 N.3    53  PHE53      -0.1241
     63  CA        -6.9280   92.9480   -3.7900 C.3    53  PHE53       0.1605
     64  C         -6.9070   91.4380   -3.6160 C.2    53  PHE53       0.2264
     65  O         -6.9520   90.7000   -4.6010 O.2    53  PHE53      -0.2867
     66  CB        -8.3490   93.3810   -4.1340 C.3    53  PHE53       0.0534
     67  CG        -9.3680   92.9920   -3.1010 C.ar   53  PHE53      -0.0203
     68  CD1       -9.7060   93.8680   -2.0730 C.ar   53  PHE53      -0.0042
     69  CD2       -9.9980   91.7510   -3.1550 C.ar   53  PHE53      -0.0042
     70  CE1      -10.6600   93.5220   -1.1120 C.ar   53  PHE53      -0.0003
     71  CE2      -10.9420   91.3930   -2.2100 C.ar   53  PHE53      -0.0003
     72  CZ       -11.2750   92.2900   -1.1800 C.ar   53  PHE53      -0.0000
     73  N         -8.1800   88.0170   -0.8620 N.3    55  GLU55      -0.1245
     74  CA        -8.9230   87.5190    0.2830 C.3    55  GLU55       0.1567
     75  C         -8.5600   86.0550    0.3700 C.2    55  GLU55       0.2260
     76  O         -8.7630   85.3160   -0.5830 O.2    55  GLU55      -0.2867
     77  CB       -10.4290   87.6650    0.0710 C.3    55  GLU55       0.0388
     78  CG       -11.2510   87.1840    1.2540 C.3    55  GLU55       0.1160
     79  CD       -12.7500   87.3650    1.0530 C.2    55  GLU55       0.3649
     80  OE1      -13.5240   87.0720    2.0050 O.co2  55  GLU55      -0.2457
     81  OE2      -13.1510   87.7980   -0.0570 O.co2  55  GLU55      -0.2457
     82  N         -8.4860   89.7560    4.6440 N.3    85  ILE85      -0.1245
     83  CA        -8.7620   90.5820    3.4750 C.3    85  ILE85       0.1561
     84  C         -7.7320   91.6820    3.3800 C.2    85  ILE85       0.2260
     85  O         -7.4620   92.3710    4.3560 O.2    85  ILE85      -0.2867
     86  CB       -10.1280   91.2540    3.5720 C.3    85  ILE85       0.0252
     87  CG1      -11.1460   90.2650    4.1090 C.3    85  ILE85       0.0019
     88  CG2      -10.5710   91.7480    2.2110 C.3    85  ILE85       0.0019
     89  CD1      -12.4330   90.9300    4.4360 C.3    85  ILE85       0.0001
     90  N         -6.3220   94.8980    0.6970 N.3    87  ASP87      -0.1239
     91  CA        -6.5420   95.7480   -0.4520 C.3    87  ASP87       0.1674
     92  C         -5.3930   96.7410   -0.4440 C.2    87  ASP87       0.2266
     93  O         -5.2950   97.5770    0.4420 O.2    87  ASP87      -0.2867
     94  CB        -7.8690   96.4680   -0.2920 C.3    87  ASP87       0.1410
     95  CG        -8.3100   97.1510   -1.5460 C.2    87  ASP87       0.3668
     96  OD1       -9.2650   97.9430   -1.4700 O.co2  87  ASP87      -0.2456
     97  OD2       -7.7060   96.8920   -2.6060 O.co2  87  ASP87      -0.2456
     98  N         -6.5250   98.5110    3.0110 N.3    96  GLN96      -0.1245
     99  CA        -7.2450   97.7090    3.9930 C.3    96  GLN96       0.1566
    100  C         -6.5230   96.4200    4.3280 C.2    96  GLN96       0.2260
    101  O         -6.0820   95.7020    3.4320 O.2    96  GLN96      -0.2867
    102  CB        -8.6470   97.3370    3.4970 C.3    96  GLN96       0.0367
    103  CG        -9.3820   96.3720    4.4520 C.3    96  GLN96       0.0905
    104  CD       -10.6080   95.6990    3.8440 C.2    96  GLN96       0.2608
    105  OE1      -11.1360   94.7250    4.3930 O.2    96  GLN96      -0.2717
    106  NE2      -11.0680   96.2170    2.7120 N.am   96  GLN96      -0.0878
    107  N         -9.0380  102.0760    4.9090 N.3   128  TYR128     -0.1241
    108  CA        -9.3410  103.3140    4.2020 C.3   128  TYR128      0.1605
    109  C         -9.4670  104.5120    5.1530 C.2   128  TYR128      0.2264
    110  O        -10.3200  105.3970    4.9650 O.2   128  TYR128     -0.2867
    111  CB       -10.6280  103.1610    3.3890 C.3   128  TYR128      0.0534
    112  CG       -10.6920  101.8600    2.6310 C.ar  128  TYR128     -0.0201
    113  CD1      -11.6120  100.8760    2.9740 C.ar  128  TYR128     -0.0009
    114  CD2       -9.7990  101.5850    1.6040 C.ar  128  TYR128     -0.0009
    115  CE1      -11.6380   99.6500    2.3140 C.ar  128  TYR128      0.0417
    116  CE2       -9.8140  100.3600    0.9330 C.ar  128  TYR128      0.0417
    117  CZ       -10.7370   99.4030    1.2980 C.ar  128  TYR128      0.1957
    118  OH       -10.7610   98.1880    0.6490 O.3   128  TYR128     -0.2866
    119  N        -17.5330   88.1300   12.9470 N.3   140  ARG140     -0.1245
    120  CA       -18.1050   87.6320   11.7140 C.3   140  ARG140      0.1563
    121  C        -18.4690   86.1590   11.7530 C.2   140  ARG140      0.2260
    122  O        -17.7060   85.3130   12.2420 O.2   140  ARG140     -0.2867
    123  CB       -17.1490   87.8450   10.5360 C.3   140  ARG140      0.0307
    124  CG       -17.4530   86.9050    9.3510 C.3   140  ARG140      0.0489
    125  CD       -16.5940   87.1650    8.1400 C.3   140  ARG140      0.2205
    126  NE       -16.8230   88.5070    7.6210 N.pl3 140  ARG140     -0.0865
    127  CZ       -16.1910   89.0200    6.5800 C.cat 140  ARG140      0.5346
    128  NH1      -15.2880   88.3110    5.9350 N.pl3 140  ARG140      0.1354
    129  NH2      -16.4620   90.2450    6.1930 N.pl3 140  ARG140      0.1354
    130  N        -25.1710   88.5270   -5.8680 N.3   210  ARG210     -0.1245
    131  CA       -24.7100   88.8850   -4.5450 C.3   210  ARG210      0.1563
    132  C        -25.5190   90.0110   -3.9690 C.2   210  ARG210      0.2260
    133  O        -25.7720   91.0190   -4.6260 O.2   210  ARG210     -0.2867
    134  CB       -23.2320   89.2520   -4.5920 C.3   210  ARG210      0.0307
    135  CG       -22.6650   89.7780   -3.3000 C.3   210  ARG210      0.0489
    136  CD       -21.1860   89.9790   -3.4470 C.3   210  ARG210      0.2205
    137  NE       -20.4680   88.7230   -3.3320 N.pl3 210  ARG210     -0.0865
    138  CZ       -19.1940   88.5650   -3.6680 C.cat 210  ARG210      0.5346
    139  NH1      -18.4930   89.5940   -4.1550 N.pl3 210  ARG210      0.1354
    140  NH2      -18.6190   87.3810   -3.4990 N.pl3 210  ARG210      0.1354
    141  N        -21.8330   89.0880  -10.6790 N.3   241  TYR241     -0.1241
    142  CA       -20.5720   88.8920  -11.3520 C.3   241  TYR241      0.1605
    143  C        -20.6880   87.8170  -12.4260 C.2   241  TYR241      0.2264
    144  O        -21.4610   86.8630  -12.2880 O.2   241  TYR241     -0.2867
    145  CB       -19.5050   88.4470  -10.3590 C.3   241  TYR241      0.0534
    146  CG       -19.3160   89.3450   -9.1610 C.ar  241  TYR241     -0.0201
    147  CD1      -20.1910   89.3010   -8.0800 C.ar  241  TYR241     -0.0009
    148  CD2      -18.2280   90.2130   -9.0880 C.ar  241  TYR241     -0.0009
    149  CE1      -19.9780   90.0970   -6.9510 C.ar  241  TYR241      0.0417
    150  CE2      -18.0110   91.0020   -7.9790 C.ar  241  TYR241      0.0417
    151  CZ       -18.8800   90.9440   -6.9070 C.ar  241  TYR241      0.1957
    152  OH       -18.6250   91.7110   -5.7820 O.3   241  TYR241     -0.2866
@<TRIPOS>BOND
     1    30    31    1
     2    33    32    2
     3    32    31    1
     4    31    34    1
     5   143   144    2
     6   143   142    1
     7    34    35    1
     8    35    36   ar
     9    35    37   ar
    10   142   141    1
    11   142   145    1
    12    36    38   ar
    13    37    39   ar
    14   145   146    1
    15    38    40   ar
    16    39    40   ar
    17    21    22    2
    18    21    20    1
    19    40    41    1
    20   146   148   ar
    21   146   147   ar
    22   148   150   ar
    23    20    23    1
    24    20    19    1
    25    29    27    1
    26    56    55    1
    27    56    57    2
    28    60    59   ar
    29    23    24    1
    30    55    58    1
    31    55    54    1
    32   147   149   ar
    33   150   151   ar
    34    58    59    1
    35    26    27    2
    36    26    25    1
    37    27    28    1
    38     1     2    1
    39    59    61   ar
    40     6     5    1
    41    24    25    1
    42   149   151   ar
    43   151   152    1
    44     5     2    1
    45     5     7    1
    46     2     3    1
    47   130   131    1
    48     4     3    2
    49    46    43    1
    50    46    47    1
    51    62    63    1
    52    48    47   ar
    53    48    50   ar
    54   133   132    2
    55    65    64    2
    56   134   131    1
    57   134   135    1
    58   131   132    1
    59    43    44    1
    60    43    42    1
    61    44    45    2
    62    47    49   ar
    63    50    52   ar
    64   139   138    1
    65    66    63    1
    66    66    67    1
    67    63    64    1
    68   138   140    1
    69   138   137    2
    70   136   137    1
    71   136   135    1
    72    49    51   ar
    73    69    67   ar
    74    69    71   ar
    75    52    51   ar
    76    52    53    1
    77    67    68   ar
    78    97    95   ar
    79    16    14   ar
    80    16    18   ar
    81    14    13   ar
    82    71    72   ar
    83    68    70   ar
    84     8     9    1
    85    95    96   ar
    86    95    94    1
    87    18    17   ar
    88    72    70   ar
    89    13    12    1
    90    13    15   ar
    91    12     9    1
    92    73    74    1
    93     9    10    1
    94    76    75    2
    95    10    11    2
    96    91    92    1
    97    91    94    1
    98    91    90    1
    99    92    93    2
   100    81    79   ar
   101    17    15   ar
   102    77    74    1
   103    77    78    1
   104    74    75    1
   105   118   117    1
   106   116   117   ar
   107   116   114   ar
   108    79    78    1
   109    79    80   ar
   110   117   115   ar
   111   114   112   ar
   112    88    86    1
   113   115   113   ar
   114   112   113   ar
   115   112   111    1
   116   106   104   am
   117    98    99    1
   118    84    83    1
   119    84    85    2
   120   111   108    1
   121   101   100    2
   122    83    86    1
   123    83    82    1
   124   102    99    1
   125   102   103    1
   126    86    87    1
   127   104   105    2
   128   104   103    1
   129    99   100    1
   130    87    89    1
   131   108   107    1
   132   108   109    1
   133   110   109    2
   134   128   127    1
   135   129   127    1
   136   127   126    2
   137   126   125    1
   138   125   124    1
   139   124   123    1
   140   123   120    1
   141   120   121    1
   142   120   119    1
   143   121   122    2
