@<TRIPOS>MOLECULE
tmp/1tlxA00.pdb
 129 124 0 0 0
SMALL
GASTEIGER

@<TRIPOS>ATOM
      1  N         32.5160   34.1210    1.1340 N.3   111  ASN111     -0.1225
      2  CA        33.6790   34.8990    1.4840 C.3   111  ASN111      0.1785
      3  C         33.9320   35.9900    0.4570 C.2   111  ASN111      0.2597
      4  O         35.0240   36.1400   -0.0750 O.2   111  ASN111     -0.2718
      5  CB        34.8640   33.9490    1.5560 C.3   111  ASN111      0.1169
      6  CG        34.8550   33.2550    2.8900 C.2   111  ASN111      0.2627
      7  OD1       34.4960   33.8320    3.9120 O.2   111  ASN111     -0.2716
      8  ND2       35.2560   31.9720    2.8740 N.am  111  ASN111     -0.0877
      9  N         32.9220   36.7910    0.0890 N.am  112  ASN112     -0.1960
     10  CA        33.1730   37.8490   -0.8560 C.3   112  ASN112      0.1819
     11  C         32.0300   38.8400   -0.8590 C.2   112  ASN112      0.2621
     12  O         31.0610   38.7180   -0.1220 O.2   112  ASN112     -0.2715
     13  CB        33.3310   37.2270   -2.2480 C.3   112  ASN112      0.1195
     14  CG        34.3770   37.9870   -3.0290 C.2   112  ASN112      0.2630
     15  OD1       34.7230   39.1230   -2.7170 O.2   112  ASN112     -0.2716
     16  ND2       34.8950   37.3250   -4.0790 N.am  112  ASN112     -0.0877
     17  N         32.2030   39.8520   -1.6740 N.am  113  ALA113     -0.1963
     18  CA        31.2380   40.9220   -1.8490 C.3   113  ALA113      0.1728
     19  C         31.4730   41.3990   -3.2760 C.2   113  ALA113      0.2616
     20  O         32.5940   41.2380   -3.7950 O.2   113  ALA113     -0.2715
     21  CB        31.3910   42.0980   -0.8800 C.3   113  ALA113      0.0334
     22  N         30.4700   41.9990   -3.9150 N.am  114  PHE114     -0.1974
     23  CA        30.6410   42.4380   -5.2720 C.3   114  PHE114      0.1639
     24  C         29.4880   43.3390   -5.7240 C.2   114  PHE114      0.2290
     25  O         28.3620   43.2980   -5.2690 O.2   114  PHE114     -0.2864
     26  CB        30.6990   41.2250   -6.2250 C.3   114  PHE114      0.0560
     27  CG        29.5430   40.2420   -6.2000 C.ar  114  PHE114     -0.0200
     28  CD1       29.4910   39.2100   -5.3060 C.ar  114  PHE114     -0.0042
     29  CD2       28.4850   40.3710   -7.0900 C.ar  114  PHE114     -0.0042
     30  CE1       28.4500   38.2660   -5.2850 C.ar  114  PHE114     -0.0003
     31  CE2       27.4440   39.4520   -7.1300 C.ar  114  PHE114     -0.0003
     32  CZ        27.4240   38.4030   -6.2000 C.ar  114  PHE114     -0.0000
     33  N         37.8920   33.1250    7.5940 N.3   129  THR129     -0.1203
     34  CA        38.6140   33.9010    6.5960 C.3   129  THR129      0.1994
     35  C         38.0820   35.3240    6.6270 C.2   129  THR129      0.2617
     36  O         38.8010   36.3070    6.5230 O.2   129  THR129     -0.2717
     37  CB        38.3030   33.2940    5.1970 C.3   129  THR129      0.1784
     38  OG1       38.4610   31.8740    5.2890 O.3   129  THR129     -0.2211
     39  CG2       39.1410   33.9200    4.1050 C.3   129  THR129      0.0376
     40  N         36.7370   35.4190    6.7720 N.am  130  PHE130     -0.1975
     41  CA        36.1040   36.7360    6.8160 C.3   130  PHE130      0.1639
     42  C         34.9530   36.7260    7.8220 C.2   130  PHE130      0.2290
     43  O         34.3330   35.6690    7.9470 O.2   130  PHE130     -0.2864
     44  CB        35.4210   37.1280    5.5080 C.3   130  PHE130      0.0560
     45  CG        36.3130   37.5350    4.3780 C.ar  130  PHE130     -0.0200
     46  CD1       36.7870   38.8360    4.3250 C.ar  130  PHE130     -0.0042
     47  CD2       36.6660   36.6560    3.3740 C.ar  130  PHE130     -0.0042
     48  CE1       37.5810   39.2750    3.2790 C.ar  130  PHE130     -0.0003
     49  CE2       37.4970   37.0780    2.3360 C.ar  130  PHE130     -0.0003
     50  CZ        37.9390   38.3830    2.2940 C.ar  130  PHE130     -0.0000
     51  N         31.1210   41.0050    5.2450 N.3   133  LEU133     -0.1245
     52  CA        32.0050   41.9020    4.4930 C.3   133  LEU133      0.1561
     53  C         31.6640   43.3690    4.4850 C.2   133  LEU133      0.2260
     54  O         32.5270   44.2730    4.3190 O.2   133  LEU133     -0.2867
     55  CB        32.1580   41.3350    3.0540 C.3   133  LEU133      0.0270
     56  CG        33.2200   40.2040    3.1100 C.3   133  LEU133      0.0019
     57  CD1       32.6110   38.8220    3.2260 C.3   133  LEU133      0.0001
     58  CD2       34.1980   40.3570    1.9740 C.3   133  LEU133      0.0001
     59  N         35.9080   48.0520    1.8640 N.3   139  VAL139     -0.1245
     60  CA        35.2410   47.0570    1.0210 C.3   139  VAL139      0.1561
     61  C         33.9750   47.6620    0.3910 C.2   139  VAL139      0.2260
     62  O         33.7830   47.5190   -0.8230 O.2   139  VAL139     -0.2867
     63  CB        34.8440   45.8040    1.8490 C.3   139  VAL139      0.0252
     64  CG1       33.9640   44.8370    1.0820 C.3   139  VAL139      0.0019
     65  CG2       36.1130   45.0540    2.3000 C.3   139  VAL139      0.0019
     66  N         35.0760   50.2190   -2.1600 N.3   142  HIS142     -0.1226
     67  CA        35.7190   49.5310   -3.2970 C.3   142  HIS142      0.1752
     68  C         34.6000   49.0630   -4.2600 C.2   142  HIS142      0.2595
     69  O         34.5700   49.3520   -5.4550 O.2   142  HIS142     -0.2718
     70  CB        36.4780   48.2960   -2.7470 C.3   142  HIS142      0.0759
     71  CG        37.0470   47.3860   -3.8070 C.ar  142  HIS142      0.0818
     72  ND1       38.3590   47.3330   -4.1620 N.ar  142  HIS142     -0.2268
     73  CD2       36.3940   46.4840   -4.5960 C.ar  142  HIS142      0.1154
     74  CE1       38.4990   46.4490   -5.1780 C.ar  142  HIS142      0.1986
     75  NE2       37.3030   45.9070   -5.4860 N.ar  142  HIS142     -0.2212
     76  N         33.6040   48.3660   -3.6780 N.am  143  GLU143     -0.1979
     77  CA        32.5620   47.7650   -4.5380 C.3   143  GLU143      0.1602
     78  C         31.7090   48.8330   -5.2100 C.2   143  GLU143      0.2287
     79  O         31.4350   48.8380   -6.4240 O.2   143  GLU143     -0.2864
     80  CB        31.6440   46.8420   -3.7500 C.3   143  GLU143      0.0415
     81  CG        32.2230   45.4480   -3.4480 C.3   143  GLU143      0.1163
     82  CD        33.0910   44.9350   -4.5480 C.2   143  GLU143      0.3649
     83  OE1       32.7710   45.0670   -5.7440 O.co2 143  GLU143     -0.2457
     84  OE2       34.1440   44.3800   -4.1620 O.co2 143  GLU143     -0.2457
     85  N         43.8840   46.7840    2.4230 N.3   188  ILE188     -0.1245
     86  CA        42.4880   46.6180    2.0170 C.3   188  ILE188      0.1561
     87  C         41.8390   45.4670    2.7880 C.2   188  ILE188      0.2260
     88  O         42.3700   44.3440    2.7390 O.2   188  ILE188     -0.2867
     89  CB        42.4110   46.2850    0.5120 C.3   188  ILE188      0.0252
     90  CG1       43.0750   47.3830   -0.3600 C.3   188  ILE188      0.0019
     91  CG2       40.9770   45.9600    0.1210 C.3   188  ILE188      0.0019
     92  CD1       42.3060   48.6920   -0.2940 C.3   188  ILE188      0.0001
     93  N         43.7760   41.7880    3.1440 N.3   202  LEU202     -0.1231
     94  CA        43.7040   41.1000    1.8580 C.3   202  LEU202      0.1693
     95  C         44.8140   41.5420    0.9290 C.2   202  LEU202      0.2591
     96  O         45.2940   40.7360    0.1710 O.2   202  LEU202     -0.2718
     97  CB        42.3600   41.4470    1.2130 C.3   202  LEU202      0.0284
     98  CG        41.6410   40.3870    0.4090 C.3   202  LEU202      0.0019
     99  CD1       41.5970   39.0870    1.1940 C.3   202  LEU202      0.0001
    100  CD2       40.2460   40.9190    0.0400 C.3   202  LEU202      0.0001
    101  N         45.0580   42.8290    0.8500 N.am  203  ARG203     -0.1980
    102  CA        46.0410   43.4000   -0.0440 C.3   203  ARG203      0.1597
    103  C         46.6150   44.6080    0.6830 C.2   203  ARG203      0.2287
    104  O         45.8980   45.1710    1.5130 O.2   203  ARG203     -0.2864
    105  CB        45.4240   44.0270   -1.3370 C.3   203  ARG203      0.0334
    106  CG        44.9260   43.0080   -2.3440 C.3   203  ARG203      0.0492
    107  CD        44.3230   43.6380   -3.5860 C.3   203  ARG203      0.2205
    108  NE        43.0400   44.2950   -3.4690 N.pl3 203  ARG203     -0.0865
    109  CZ        41.8520   43.6850   -3.4560 C.cat 203  ARG203      0.5346
    110  NH1       41.7220   42.3780   -3.4310 N.pl3 203  ARG203      0.1354
    111  NH2       40.7410   44.4090   -3.4490 N.pl3 203  ARG203      0.1354
    112  N         42.2790   34.4770  -12.4890 N.3   226  ASP226     -0.1239
    113  CA        41.7430   35.7410  -11.9710 C.3   226  ASP226      0.1674
    114  C         41.5220   36.7060  -13.1200 C.2   226  ASP226      0.2266
    115  O         41.9840   37.8510  -13.1000 O.2   226  ASP226     -0.2867
    116  CB        42.7460   36.2770  -10.9560 C.3   226  ASP226      0.1410
    117  CG        42.3700   37.5160  -10.1980 C.2   226  ASP226      0.3668
    118  OD1       41.1960   37.7500   -9.8780 O.co2 226  ASP226     -0.2456
    119  OD2       43.2750   38.3360   -9.8750 O.co2 226  ASP226     -0.2456
    120  N         43.0450   41.0050   -9.7730 N.3   231  HIS231     -0.1241
    121  CA        43.3240   41.3000   -8.3900 C.3   231  HIS231      0.1621
    122  C         44.8130   41.2010   -8.1080 C.2   231  HIS231      0.2264
    123  O         45.2950   41.5940   -7.0530 O.2   231  HIS231     -0.2867
    124  CB        42.5570   40.3000   -7.5140 C.3   231  HIS231      0.0745
    125  CG        41.0700   40.4670   -7.7240 C.ar  231  HIS231      0.0817
    126  ND1       40.3550   39.7270   -8.6100 N.ar  231  HIS231     -0.2268
    127  CD2       40.1980   41.3630   -7.0890 C.ar  231  HIS231      0.1154
    128  CE1       39.0850   40.1670   -8.5120 C.ar  231  HIS231      0.1986
    129  NE2       38.9610   41.1460   -7.6090 N.ar  231  HIS231     -0.2212
@<TRIPOS>BOND
     1   114   115    2
     2   114   113    1
     3   112   113    1
     4   113   116    1
     5   116   117    1
     6   117   118   ar
     7   117   119   ar
     8   120   121    1
     9   126   128   ar
    10   126   125   ar
    11   128   129   ar
    12   121   122    1
    13   121   124    1
    14   122   123    2
    15   125   124    1
    16   125   127   ar
    17   129   127   ar
    18    31    29   ar
    19    31    32   ar
    20    29    27   ar
    21    79    78    2
    22    26    27    1
    23    26    23    1
    24    32    30   ar
    25    27    28   ar
    26    83    82   ar
    27    24    23    1
    28    24    25    2
    29    75    74   ar
    30    75    73   ar
    31    69    68    2
    32    28    30   ar
    33    23    22    1
    34    78    77    1
    35    74    72   ar
    36    73    71   ar
    37    82    84   ar
    38    82    81    1
    39    77    80    1
    40    77    76    1
    41    68    76   am
    42    68    67    1
    43    72    71   ar
    44    16    14   am
    45    22    19   am
    46    71    70    1
    47    20    19    2
    48    80    81    1
    49   107   108    1
    50   107   106    1
    51   108   109    2
    52   109   111    1
    53   109   110    1
    54    67    70    1
    55    67    66    1
    56    19    18    1
    57    14    15    2
    58    14    13    1
    59   106   105    1
    60    13    10    1
    61    18    17    1
    62    18    21    1
    63    17    11   am
    64   105   102    1
    65    11    10    1
    66    11    12    2
    67    10     9    1
    68    62    61    2
    69    90    92    1
    70    90    89    1
    71     4     3    2
    72   102   103    1
    73   102   101    1
    74   100    98    1
    75     9     3   am
    76    91    89    1
    77    96    95    2
    78    61    60    1
    79    98    99    1
    80    98    97    1
    81     3     2    1
    82    89    86    1
    83   103   104    2
    84   101    95   am
    85    95    94    1
    86    60    63    1
    87    60    59    1
    88    64    63    1
    89     1     2    1
    90    97    94    1
    91     2     5    1
    92     5     6    1
    93    63    65    1
    94    94    93    1
    95    58    56    1
    96    86    85    1
    97    86    87    1
    98    50    49   ar
    99    50    48   ar
   100    49    47   ar
   101    88    87    2
   102     8     6   am
   103     6     7    2
   104    55    56    1
   105    55    52    1
   106    56    57    1
   107    48    46   ar
   108    47    45   ar
   109    39    37    1
   110    54    53    2
   111    46    45   ar
   112    45    44    1
   113    53    52    1
   114    52    51    1
   115    37    38    1
   116    37    34    1
   117    44    41    1
   118    36    35    2
   119    34    35    1
   120    34    33    1
   121    35    40   am
   122    40    41    1
   123    41    42    1
   124    42    43    2
