@<TRIPOS>MOLECULE
tmp/1tlzA00.pdb
 130 122 0 0 0
SMALL
GASTEIGER

@<TRIPOS>ATOM
      1  N        -21.6310   96.5920   -7.6420 N.3    17  THR17      -0.1218
      2  CA       -20.9150   96.1270   -6.4660 C.3    17  THR17       0.1862
      3  C        -21.2150   97.0780   -5.3150 C.2    17  THR17       0.2287
      4  O        -21.3300   98.2790   -5.5450 O.2    17  THR17      -0.2866
      5  CB       -19.4250   96.1520   -6.7690 C.3    17  THR17       0.1770
      6  OG1      -19.0460   94.8660   -7.2650 O.3    17  THR17      -0.2211
      7  CG2      -18.5980   96.5500   -5.5280 C.3    17  THR17       0.0375
      8  N        -19.4700   97.2080   -1.8560 N.3    19  PHE19      -0.1241
      9  CA       -18.5760   97.2620   -0.7000 C.3    19  PHE19       0.1605
     10  C        -18.1810   98.7030   -0.3370 C.2    19  PHE19       0.2264
     11  O        -17.8030   98.9520    0.7910 O.2    19  PHE19      -0.2867
     12  CB       -17.2890   96.4860   -0.9540 C.3    19  PHE19       0.0534
     13  CG       -17.4580   95.0000   -1.0350 C.ar   19  PHE19      -0.0203
     14  CD1      -17.5940   94.3640   -2.2620 C.ar   19  PHE19      -0.0042
     15  CD2      -17.3750   94.2190    0.1070 C.ar   19  PHE19      -0.0042
     16  CE1      -17.6320   92.9700   -2.3380 C.ar   19  PHE19      -0.0003
     17  CE2      -17.4120   92.8450    0.0300 C.ar   19  PHE19      -0.0003
     18  CZ       -17.5370   92.2230   -1.1900 C.ar   19  PHE19      -0.0000
     19  N        -11.4700   92.7570  -14.1020 N.3    28  TYR28      -0.1241
     20  CA       -10.1260   92.5660  -13.6090 C.3    28  TYR28       0.1605
     21  C         -9.6680   91.1200  -13.6930 C.2    28  TYR28       0.2264
     22  O        -10.4670   90.2040  -13.9330 O.2    28  TYR28      -0.2867
     23  CB       -10.0860   93.0450  -12.1710 C.3    28  TYR28       0.0534
     24  CG       -11.1890   92.4430  -11.3140 C.ar   28  TYR28      -0.0201
     25  CD1      -11.0550   91.1690  -10.7680 C.ar   28  TYR28      -0.0009
     26  CD2      -12.3620   93.1500  -11.0460 C.ar   28  TYR28      -0.0009
     27  CE1      -12.0510   90.6150   -9.9730 C.ar   28  TYR28       0.0417
     28  CE2      -13.3670   92.6040  -10.2490 C.ar   28  TYR28       0.0417
     29  CZ       -13.1970   91.3390   -9.7130 C.ar   28  TYR28       0.1957
     30  OH       -14.1340   90.8090   -8.8570 O.3    28  TYR28      -0.2866
     31  N         -7.8880   87.7030  -12.0060 N.3    30  GLU30      -0.1245
     32  CA        -7.9570   87.1050  -10.6900 C.3    30  GLU30       0.1567
     33  C         -7.2730   85.7650  -10.6030 C.2    30  GLU30       0.2260
     34  O         -7.3910   84.9300  -11.5060 O.2    30  GLU30      -0.2867
     35  CB        -9.4060   86.9270  -10.2690 C.3    30  GLU30       0.0388
     36  CG        -9.5710   86.3280   -8.8860 C.3    30  GLU30       0.1160
     37  CD       -11.0030   85.9890   -8.5980 C.2    30  GLU30       0.3649
     38  OE1      -11.4720   84.9420   -9.0960 O.co2  30  GLU30      -0.2457
     39  OE2      -11.6640   86.7770   -7.8910 O.co2  30  GLU30      -0.2457
     40  N         -8.1580   84.2160   -3.0100 N.3    45  TYR45      -0.1241
     41  CA        -8.1050   84.8000   -4.3410 C.3    45  TYR45       0.1605
     42  C         -7.4510   86.1820   -4.3170 C.2    45  TYR45       0.2264
     43  O         -7.4860   86.8800   -3.3070 O.2    45  TYR45      -0.2867
     44  CB        -9.5190   84.8990   -4.9240 C.3    45  TYR45       0.0534
     45  CG       -10.3920   85.9470   -4.2670 C.ar   45  TYR45      -0.0201
     46  CD1      -10.3510   87.2700   -4.6820 C.ar   45  TYR45      -0.0009
     47  CD2      -11.2470   85.6190   -3.2170 C.ar   45  TYR45      -0.0009
     48  CE1      -11.1410   88.2460   -4.0710 C.ar   45  TYR45       0.0417
     49  CE2      -12.0340   86.5870   -2.5950 C.ar   45  TYR45       0.0417
     50  CZ       -11.9770   87.9000   -3.0290 C.ar   45  TYR45       0.1957
     51  OH       -12.7490   88.8780   -2.4290 O.3    45  TYR45      -0.2866
     52  N         -7.1870   89.7500   -6.7230 N.3    47  ASP47      -0.1239
     53  CA        -7.7270   90.4970   -7.8440 C.3    47  ASP47       0.1674
     54  C         -6.8100   91.6500   -8.2230 C.2    47  ASP47       0.2266
     55  O         -6.2300   92.3080   -7.3620 O.2    47  ASP47      -0.2867
     56  CB        -9.1250   91.0410   -7.5070 C.3    47  ASP47       0.1410
     57  CG       -10.1480   89.9410   -7.3190 C.2    47  ASP47       0.3668
     58  OD1      -10.0070   88.8890   -7.9640 O.co2  47  ASP47      -0.2456
     59  OD2      -11.1090   90.1170   -6.5480 O.co2  47  ASP47      -0.2456
     60  N         -5.9950   93.3610   -4.5600 N.3    53  PHE53      -0.1241
     61  CA        -6.9520   93.0480   -3.4950 C.3    53  PHE53       0.1605
     62  C         -6.8700   91.5430   -3.3230 C.2    53  PHE53       0.2264
     63  O         -6.9250   90.8090   -4.3050 O.2    53  PHE53      -0.2867
     64  CB        -8.3780   93.4100   -3.9200 C.3    53  PHE53       0.0534
     65  CG        -9.4190   93.1760   -2.8550 C.ar   53  PHE53      -0.0203
     66  CD1       -9.8610   94.2300   -2.0440 C.ar   53  PHE53      -0.0042
     67  CD2       -9.9970   91.9230   -2.6900 C.ar   53  PHE53      -0.0042
     68  CE1      -10.8770   94.0440   -1.0800 C.ar   53  PHE53      -0.0003
     69  CE2      -11.0170   91.7230   -1.7280 C.ar   53  PHE53      -0.0003
     70  CZ       -11.4600   92.7960   -0.9190 C.ar   53  PHE53      -0.0000
     71  N         -8.0010   88.0710   -0.6900 N.3    55  GLU55      -0.1245
     72  CA        -8.7200   87.5490    0.4570 C.3    55  GLU55       0.1567
     73  C         -8.3730   86.0810    0.5630 C.2    55  GLU55       0.2260
     74  O         -8.5170   85.3290   -0.4000 O.2    55  GLU55      -0.2867
     75  CB       -10.2340   87.7270    0.2680 C.3    55  GLU55       0.0388
     76  CG       -11.0730   87.2610    1.4580 C.3    55  GLU55       0.1160
     77  CD       -12.5680   87.4970    1.2660 C.2    55  GLU55       0.3649
     78  OE1      -13.3630   87.1080    2.1570 O.co2  55  GLU55      -0.2457
     79  OE2      -12.9400   88.0790    0.2190 O.co2  55  GLU55      -0.2457
     80  N         -8.5350   89.7230    4.8360 N.3    85  ILE85      -0.1245
     81  CA        -8.7170   90.5840    3.6670 C.3    85  ILE85       0.1561
     82  C         -7.6670   91.6980    3.6340 C.2    85  ILE85       0.2260
     83  O         -7.4570   92.4030    4.6220 O.2    85  ILE85      -0.2867
     84  CB       -10.1210   91.2730    3.6680 C.3    85  ILE85       0.0252
     85  CG1      -11.2260   90.2320    3.7660 C.3    85  ILE85       0.0019
     86  CG2      -10.3290   92.0650    2.3970 C.3    85  ILE85       0.0019
     87  CD1      -11.3790   89.6240    5.1310 C.3    85  ILE85       0.0001
     88  N         -6.5190   98.4710    3.3270 N.3    96  GLN96      -0.1245
     89  CA        -7.1660   97.6780    4.3530 C.3    96  GLN96       0.1566
     90  C         -6.4570   96.3910    4.6970 C.2    96  GLN96       0.2260
     91  O         -5.9380   95.7040    3.8220 O.2    96  GLN96      -0.2867
     92  CB        -8.5790   97.3280    3.9080 C.3    96  GLN96       0.0367
     93  CG        -9.2400   96.2620    4.7740 C.3    96  GLN96       0.0905
     94  CD       -10.4420   95.6130    4.1180 C.2    96  GLN96       0.2608
     95  OE1      -11.0250   94.6780    4.6600 O.2    96  GLN96      -0.2717
     96  NE2      -10.8170   96.1070    2.9450 N.am   96  GLN96      -0.0878
     97  N        -17.6200   88.0490   12.9500 N.3   140  ARG140     -0.1245
     98  CA       -18.1990   87.5420   11.7230 C.3   140  ARG140      0.1563
     99  C        -18.6150   86.0770   11.7530 C.2   140  ARG140      0.2260
    100  O        -17.9140   85.2070   12.2860 O.2   140  ARG140     -0.2867
    101  CB       -17.2330   87.7480   10.5510 C.3   140  ARG140      0.0307
    102  CG       -17.5230   86.8190    9.3700 C.3   140  ARG140      0.0489
    103  CD       -16.7000   87.1430    8.1690 C.3   140  ARG140      0.2205
    104  NE       -16.9570   88.5090    7.7520 N.pl3 140  ARG140     -0.0865
    105  CZ       -16.3830   89.0950    6.7140 C.cat 140  ARG140      0.5346
    106  NH1      -15.5100   88.4340    5.9670 N.pl3 140  ARG140      0.1354
    107  NH2      -16.6860   90.3470    6.4330 N.pl3 140  ARG140      0.1354
    108  N        -24.9470   88.6640   -5.9660 N.3   210  ARG210     -0.1245
    109  CA       -24.5520   89.0070   -4.6090 C.3   210  ARG210      0.1563
    110  C        -25.4350   90.1040   -4.0620 C.2   210  ARG210      0.2260
    111  O        -25.7420   91.0770   -4.7460 O.2   210  ARG210     -0.2867
    112  CB       -23.0810   89.4280   -4.5990 C.3   210  ARG210      0.0307
    113  CG       -22.5200   89.9280   -3.2830 C.3   210  ARG210      0.0489
    114  CD       -20.9990   90.0590   -3.3950 C.3   210  ARG210      0.2205
    115  NE       -20.3810   88.7480   -3.3060 N.pl3 210  ARG210     -0.0865
    116  CZ       -19.1090   88.4780   -3.5900 C.cat 210  ARG210      0.5346
    117  NH1      -18.2690   89.4380   -4.0090 N.pl3 210  ARG210      0.1354
    118  NH2      -18.6690   87.2340   -3.4300 N.pl3 210  ARG210      0.1354
    119  N        -21.6830   89.2370  -10.6580 N.3   241  TYR241     -0.1241
    120  CA       -20.4110   89.0470  -11.3170 C.3   241  TYR241      0.1605
    121  C        -20.4780   87.9590  -12.3910 C.2   241  TYR241      0.2264
    122  O        -21.2620   87.0090  -12.2780 O.2   241  TYR241     -0.2867
    123  CB       -19.3580   88.6240  -10.3060 C.3   241  TYR241      0.0534
    124  CG       -19.1890   89.5440   -9.1470 C.ar  241  TYR241     -0.0201
    125  CD1      -20.0830   89.5390   -8.0740 C.ar  241  TYR241     -0.0009
    126  CD2      -18.1020   90.4000   -9.0940 C.ar  241  TYR241     -0.0009
    127  CE1      -19.8840   90.3720   -6.9640 C.ar  241  TYR241      0.0417
    128  CE2      -17.8890   91.2320   -8.0040 C.ar  241  TYR241      0.0417
    129  CZ       -18.7730   91.2230   -6.9390 C.ar  241  TYR241      0.1957
    130  OH       -18.5220   92.0790   -5.8730 O.3   241  TYR241     -0.2866
@<TRIPOS>BOND
     1    19    20    1
     2    22    21    2
     3    21    20    1
     4    20    23    1
     5   121   122    2
     6   121   120    1
     7    23    24    1
     8    31    32    1
     9    34    33    2
    10   120   119    1
    11   120   123    1
    12    24    26   ar
    13    24    25   ar
    14    26    28   ar
    15    25    27   ar
    16    32    33    1
    17    32    35    1
    18   123   124    1
    19    35    36    1
    20    28    29   ar
    21    27    29   ar
    22    29    30    1
    23   124   126   ar
    24   124   125   ar
    25    38    37   ar
    26   126   128   ar
    27    36    37    1
    28    37    39   ar
    29    54    53    1
    30    54    55    2
    31   125   127   ar
    32   128   129   ar
    33    58    57   ar
    34    53    56    1
    35    53    52    1
    36     1     2    1
    37    56    57    1
    38    57    59   ar
    39     6     5    1
    40   127   129   ar
    41   129   130    1
    42     5     2    1
    43     5     7    1
    44     2     3    1
    45   108   109    1
    46     4     3    2
    47    44    41    1
    48    44    45    1
    49   111   110    2
    50    46    45   ar
    51    46    48   ar
    52   109   112    1
    53   109   110    1
    54   112   113    1
    55    60    61    1
    56    41    42    1
    57    41    40    1
    58    42    43    2
    59    63    62    2
    60    45    47   ar
    61    48    50   ar
    62   117   116    1
    63    64    61    1
    64    64    65    1
    65   116   118    1
    66   116   115    2
    67    61    62    1
    68   114   115    1
    69   114   113    1
    70    47    49   ar
    71    50    49   ar
    72    50    51    1
    73    65    67   ar
    74    65    66   ar
    75    67    69   ar
    76    16    14   ar
    77    16    18   ar
    78    14    13   ar
    79    66    68   ar
    80     8     9    1
    81    69    70   ar
    82    18    17   ar
    83    68    70   ar
    84    13    12    1
    85    13    15   ar
    86    12     9    1
    87     9    10    1
    88    71    72    1
    89    74    73    2
    90    10    11    2
    91    17    15   ar
    92    79    77   ar
    93    75    72    1
    94    75    76    1
    95    72    73    1
    96    77    76    1
    97    77    78   ar
    98    86    84    1
    99    96    94   am
   100    88    89    1
   101    82    81    1
   102    82    83    2
   103    81    84    1
   104    81    80    1
   105    84    85    1
   106    85    87    1
   107    91    90    2
   108    92    89    1
   109    92    93    1
   110    94    95    2
   111    94    93    1
   112    89    90    1
   113   106   105    1
   114   107   105    1
   115   105   104    2
   116   104   103    1
   117   103   102    1
   118   102   101    1
   119   101    98    1
   120    98    99    1
   121    98    97    1
   122    99   100    2
