@<TRIPOS>MOLECULE
tmp/1tmbB01.pdb
 219 218 0 0 0
SMALL
GASTEIGER

@<TRIPOS>ATOM
      1  N         13.9990   -8.8040    3.3730 N.3    25  GLU25      -0.1231
      2  CA        13.2070   -9.4150    4.4880 C.3    25  GLU25       0.1699
      3  C         13.3860   -8.6110    5.7500 C.2    25  GLU25       0.2592
      4  O         14.3140   -7.8340    5.8580 O.2    25  GLU25      -0.2718
      5  CB        13.6680  -10.8680    4.7210 C.3    25  GLU25       0.0402
      6  CG        15.1800  -11.0120    4.9280 C.3    25  GLU25       0.1161
      7  CD        15.5950  -12.3230    5.5430 C.2    25  GLU25       0.3649
      8  OE1       14.6060  -13.0320    5.8690 O.co2  25  GLU25      -0.2457
      9  OE2       16.7660  -12.6470    5.6980 O.co2  25  GLU25      -0.2457
     10  N         12.4270   -8.7900    6.6440 N.am   26  LEU26      -0.1966
     11  CA        12.3850   -8.1180    7.9220 C.3    26  LEU26       0.1728
     12  C         13.4950   -8.7460    8.7950 C.2    26  LEU26       0.2616
     13  O         13.4870   -9.9750    8.9300 O.2    26  LEU26      -0.2715
     14  CB        11.0080   -8.1770    8.5570 C.3    26  LEU26       0.0311
     15  CG        10.9200   -7.4220    9.8780 C.3    26  LEU26       0.0022
     16  CD1        9.5700   -6.7660   10.0550 C.3    26  LEU26       0.0001
     17  CD2       11.2050   -8.4370   10.9910 C.3    26  LEU26       0.0001
     18  N         14.3590   -7.8240    9.2410 N.am   27  LEU27      -0.1963
     19  CA        15.4600   -8.2200   10.1220 C.3    27  LEU27       0.1728
     20  C         15.0450   -7.9860   11.5770 C.2    27  LEU27       0.2616
     21  O         14.9580   -8.9450   12.3620 O.2    27  LEU27      -0.2715
     22  CB        16.7410   -7.5210    9.6910 C.3    27  LEU27       0.0311
     23  CG        17.9120   -8.2760    9.1080 C.3    27  LEU27       0.0022
     24  CD1       17.4480   -9.4530    8.1980 C.3    27  LEU27       0.0001
     25  CD2       18.7740   -7.2880    8.3060 C.3    27  LEU27       0.0001
     26  N         14.6850   -6.7580   11.9270 N.am   28  CYS28      -0.1968
     27  CA        14.3420   -6.3390   13.2840 C.3    28  CYS28       0.1712
     28  C         13.6230   -4.9800   13.2180 C.2    28  CYS28       0.2296
     29  O         13.4650   -4.3520   12.1220 O.2    28  CYS28      -0.2864
     30  CB        15.7480   -5.9830   13.9190 C.3    28  CYS28       0.0983
     31  SG        16.6820   -7.3190   14.7440 S.3    28  CYS28      -0.0798
     32  N         22.4830   -6.9250   18.6720 N.3    43  HIS43      -0.1241
     33  CA        22.3760   -8.3070   18.1750 C.3    43  HIS43       0.1621
     34  C         21.6300   -8.4480   16.8580 C.2    43  HIS43       0.2264
     35  O         21.5310   -9.5770   16.2580 O.2    43  HIS43      -0.2867
     36  CB        21.7080   -9.1690   19.2410 C.3    43  HIS43       0.0745
     37  CG        20.2270   -9.2490   19.3130 C.ar   43  HIS43       0.0817
     38  ND1       19.4690   -8.6900   20.3600 N.ar   43  HIS43      -0.2268
     39  CD2       19.3450   -9.8940   18.5210 C.ar   43  HIS43       0.1154
     40  CE1       18.1730   -8.9280   20.1790 C.ar   43  HIS43       0.1986
     41  NE2       18.0970   -9.6380   19.0690 N.ar   43  HIS43      -0.2212
     42  N         25.6930  -11.0580   15.6180 N.3    47  TYR47      -0.1241
     43  CA        25.3960  -12.2380   16.4020 C.3    47  TYR47       0.1605
     44  C         26.0840  -13.4940   15.8190 C.2    47  TYR47       0.2264
     45  O         25.4330  -14.3380   15.1580 O.2    47  TYR47      -0.2867
     46  CB        23.8900  -12.4180   16.5150 C.3    47  TYR47       0.0534
     47  CG        23.6210  -13.3430   17.6930 C.ar   47  TYR47      -0.0201
     48  CD1       24.0770  -12.8670   18.9420 C.ar   47  TYR47      -0.0009
     49  CD2       23.0100  -14.5630   17.5770 C.ar   47  TYR47      -0.0009
     50  CE1       23.8600  -13.5910   20.1280 C.ar   47  TYR47       0.0417
     51  CE2       22.7680  -15.2930   18.7520 C.ar   47  TYR47       0.0417
     52  CZ        23.2100  -14.8110   20.0070 C.ar   47  TYR47       0.1957
     53  OH        23.0030  -15.5780   21.1240 O.3    47  TYR47      -0.2866
     54  N         25.0610  -17.0870   15.1560 N.3    50  TRP50      -0.1241
     55  CA        24.0800  -17.3840   14.1040 C.3    50  TRP50       0.1605
     56  C         24.7640  -16.9680   12.7860 C.2    50  TRP50       0.2264
     57  O         24.0660  -16.8990   11.7650 O.2    50  TRP50      -0.2867
     58  CB        22.7430  -16.7400   14.2740 C.3    50  TRP50       0.0550
     59  CG        21.7700  -17.0830   15.3410 C.ar   50  TRP50       0.0003
     60  CD1       21.5670  -18.2640   16.0070 C.ar   50  TRP50       0.0946
     61  CD2       20.7490  -16.1680   15.8370 C.ar   50  TRP50       0.0152
     62  NE1       20.5400  -18.1450   16.9290 N.ar   50  TRP50      -0.2442
     63  CE2       20.0190  -16.8660   16.8310 C.ar   50  TRP50       0.0810
     64  CE3       20.4030  -14.8620   15.5210 C.ar   50  TRP50       0.0012
     65  CZ2       18.9580  -16.2760   17.5070 C.ar   50  TRP50       0.0191
     66  CZ3       19.3630  -14.2650   16.1880 C.ar   50  TRP50       0.0001
     67  CH2       18.6540  -14.9710   17.1530 C.ar   50  TRP50       0.0015
     68  N         25.8620  -14.0690   12.2420 N.3    52  LYS52      -0.1245
     69  CA        25.2730  -12.7610   11.7850 C.3    52  LYS52       0.1561
     70  C         26.2650  -11.6250   12.0340 C.2    52  LYS52       0.2260
     71  O         26.7560  -11.4640   13.1550 O.2    52  LYS52      -0.2867
     72  CB        23.9400  -12.5070   12.4470 C.3    52  LYS52       0.0271
     73  CG        23.0320  -11.5140   11.7290 C.3    52  LYS52       0.0035
     74  CD        22.1180  -10.8780   12.7860 C.3    52  LYS52       0.0206
     75  CE        20.8340  -11.7290   12.9020 C.3    52  LYS52       0.1093
     76  NZ        20.2450  -11.3890   14.2570 N.3    52  LYS52      -0.1314
     77  N         23.8680  -10.9200   26.0770 N.3    96  LEU96      -0.1245
     78  CA        23.3690   -9.7120   25.3840 C.3    96  LEU96       0.1561
     79  C         23.4650   -8.4750   26.2690 C.2    96  LEU96       0.2260
     80  O         22.5100   -7.7150   26.3250 O.2    96  LEU96      -0.2867
     81  CB        21.9150   -9.9120   24.8880 C.3    96  LEU96       0.0270
     82  CG        21.8810  -10.4910   23.4710 C.3    96  LEU96       0.0019
     83  CD1       23.1030  -11.3760   23.2060 C.3    96  LEU96       0.0001
     84  CD2       20.5850  -11.2740   23.3810 C.3    96  LEU96       0.0001
     85  N         19.9240  -17.2570   33.5580 N.3   172  ILE172     -0.1245
     86  CA        20.8440  -16.2570   32.9630 C.3   172  ILE172      0.1561
     87  C         21.1500  -15.0870   33.8630 C.2   172  ILE172      0.2260
     88  O         20.3030  -14.5900   34.5930 O.2   172  ILE172     -0.2867
     89  CB        20.2430  -15.7530   31.5640 C.3   172  ILE172      0.0252
     90  CG1       20.3020  -17.0470   30.6660 C.3   172  ILE172      0.0019
     91  CG2       20.9350  -14.5620   30.8930 C.3   172  ILE172      0.0019
     92  CD1       19.0940  -16.8950   29.6920 C.3   172  ILE172      0.0001
     93  N          3.6270   -9.8170   25.3760 N.3   192  ASP192     -0.1225
     94  CA         5.0940   -9.7940   25.4110 C.3   192  ASP192      0.1805
     95  C          5.5430   -9.4800   23.9650 C.2   192  ASP192      0.2598
     96  O          4.7070   -9.4570   23.0440 O.2   192  ASP192     -0.2718
     97  CB         5.5830  -11.1630   25.8360 C.3   192  ASP192      0.1424
     98  CG         7.0310  -11.3440   26.2750 C.2   192  ASP192      0.3668
     99  OD1        7.7450  -10.3550   26.4750 O.co2 192  ASP192     -0.2456
    100  OD2        7.4670  -12.5500   26.3570 O.co2 192  ASP192     -0.2456
    101  N          6.8330   -9.2450   23.8870 N.am  193  ALA193     -0.1966
    102  CA         7.4450   -9.0340   22.5560 C.3   193  ALA193      0.1728
    103  C          7.6520  -10.5220   22.1740 C.2   193  ALA193      0.2616
    104  O          7.2580  -11.4330   22.9270 O.2   193  ALA193     -0.2715
    105  CB         8.7240   -8.2090   22.6250 C.3   193  ALA193      0.0334
    106  N          8.3120  -10.7550   21.0930 N.am  194  CYS194     -0.1954
    107  CA         8.5020  -12.1390   20.6370 C.3   194  CYS194      0.1843
    108  C          9.5280  -11.9860   19.5100 C.2   194  CYS194      0.2625
    109  O          9.7950  -10.8440   19.0670 O.2   194  CYS194     -0.2714
    110  CB         7.1530  -12.6630   20.1420 C.3   194  CYS194      0.0997
    111  SG         7.0580  -14.4980   19.9700 S.3   194  CYS194     -0.0797
    112  N          9.9910  -13.1390   19.1620 N.am  195  GLU195     -0.1963
    113  CA        11.0370  -13.2490   18.0830 C.3   195  GLU195      0.1733
    114  C         10.5940  -12.4190   16.9140 C.2   195  GLU195      0.2616
    115  O          9.3960  -12.4590   16.5420 O.2   195  GLU195     -0.2715
    116  CB        11.2420  -14.7770   17.8650 C.3   195  GLU195      0.0429
    117  CG        12.0390  -15.5960   18.8700 C.3   195  GLU195      0.1163
    118  CD        11.8290  -16.0300   20.2770 C.2   195  GLU195      0.3649
    119  OE1       12.1990  -15.1870   21.1820 O.co2 195  GLU195     -0.2457
    120  OE2       11.4790  -17.1460   20.7320 O.co2 195  GLU195     -0.2457
    121  N         11.4260  -11.5600   16.3770 N.am  196  GLY196     -0.1955
    122  CA        11.1500  -10.6520   15.2590 C.3   196  GLY196      0.1869
    123  C         10.8580   -9.2060   15.6160 C.2   196  GLY196      0.2309
    124  O         10.8910   -8.2930   14.7790 O.2   196  GLY196     -0.2863
    125  N         12.7080   -7.8370   18.0770 N.3   198  SER198     -0.1217
    126  CA        13.9920   -7.2700   18.4960 C.3   198  SER198      0.1889
    127  C         14.3080   -5.8820   17.9240 C.2   198  SER198      0.2288
    128  O         14.0690   -5.5860   16.7780 O.2   198  SER198     -0.2866
    129  CB        15.2170   -8.1330   18.0910 C.3   198  SER198      0.2089
    130  OG        15.1030   -9.4380   18.6680 O.3   198  SER198     -0.2183
    131  N         13.9440   -3.7500   22.7710 N.3   218  VAL218     -0.1231
    132  CA        13.5730   -5.1740   22.8520 C.3   218  VAL218      0.1692
    133  C         14.8550   -6.0130   22.6810 C.2   218  VAL218      0.2593
    134  O         15.4370   -5.9530   21.5790 O.2   218  VAL218     -0.2718
    135  CB        12.4630   -5.5470   21.8620 C.3   218  VAL218      0.0266
    136  CG1       12.2450   -7.1120   22.0080 C.3   218  VAL218      0.0020
    137  CG2       11.1910   -4.8040   21.9300 C.3   218  VAL218      0.0020
    138  N         15.2230   -6.7650   23.7490 N.am  219  SER219     -0.1938
    139  CA        16.4740   -7.5640   23.7050 C.3   219  SER219      0.2055
    140  C         16.3610   -9.0800   23.5710 C.2   219  SER219      0.2643
    141  O         16.6820   -9.6200   22.4270 O.2   219  SER219     -0.2714
    142  CB        17.4360   -7.1920   24.8590 C.3   219  SER219      0.2130
    143  OG        18.7280   -7.7760   24.5560 O.3   219  SER219     -0.2179
    144  N         15.8810   -9.7700   24.6070 N.am  220  TRP220     -0.1959
    145  CA        15.7830  -11.2600   24.5480 C.3   220  TRP220      0.1771
    146  C         14.6970  -11.7340   25.4530 C.2   220  TRP220      0.2620
    147  O         14.2140  -10.8980   26.2070 O.2   220  TRP220     -0.2715
    148  CB        17.1290  -11.9630   24.9630 C.3   220  TRP220      0.0590
    149  CG        17.5860  -11.5030   26.3170 C.ar  220  TRP220      0.0006
    150  CD1       18.2720  -10.3550   26.6290 C.ar  220  TRP220      0.0946
    151  CD2       17.4620  -12.2510   27.5690 C.ar  220  TRP220      0.0152
    152  NE1       18.5040  -10.2850   27.9770 N.ar  220  TRP220     -0.2442
    153  CE2       18.0250  -11.4320   28.5900 C.ar  220  TRP220      0.0810
    154  CE3       16.9030  -13.4720   27.9150 C.ar  220  TRP220      0.0012
    155  CZ2       18.0780  -11.8490   29.9190 C.ar  220  TRP220      0.0191
    156  CZ3       16.8520  -13.8970   29.2070 C.ar  220  TRP220      0.0001
    157  CH2       17.4990  -13.0870   30.1890 C.ar  220  TRP220      0.0015
    158  N         14.4010  -13.0010   25.4360 N.am  221  GLY221     -0.1940
    159  CA        13.3250  -13.5480   26.3370 C.3   221  GLY221      0.2014
    160  C         13.4270  -15.0780   26.2380 C.2   221  GLY221      0.2639
    161  O         14.2490  -15.5700   25.4370 O.2   221  GLY221     -0.2714
    162  N         12.5740  -15.7760   26.9650 N.am  222  GLU222     -0.1963
    163  CA        12.4920  -17.2630   27.0220 C.3   222  GLU222      0.1733
    164  C         11.1080  -17.7080   26.6370 C.2   222  GLU222      0.2617
    165  O         10.1360  -17.7210   27.4020 O.2   222  GLU222     -0.2715
    166  CB        13.0180  -17.7550   28.3710 C.3   222  GLU222      0.0429
    167  CG        14.5150  -17.4220   28.5880 C.3   222  GLU222      0.1163
    168  CD        15.1880  -17.7060   29.8960 C.2   222  GLU222      0.3649
    169  OE1       14.4680  -17.5270   30.8950 O.co2 222  GLU222     -0.2457
    170  OE2       16.3860  -18.0380   29.9830 O.co2 222  GLU222     -0.2457
    171  N         11.0260  -18.0180   25.2990 N.am  223  GLY223     -0.1940
    172  CA         9.6550  -18.3090   24.7320 C.3   223  GLY223      0.2014
    173  C          8.9990  -16.8990   24.7040 C.2   223  GLY223      0.2639
    174  O          9.7000  -15.8500   24.8630 O.2   223  GLY223     -0.2714
    175  N          7.7400  -16.7720   24.4530 N.am  224  CYS224     -0.1967
    176  CA         6.9620  -15.5410   24.3630 C.3   224  CYS224      0.1712
    177  C          5.6730  -15.8150   25.1600 C.2   224  CYS224      0.2296
    178  O          5.0090  -16.8770   25.0480 O.2   224  CYS224     -0.2864
    179  CB         6.6000  -15.1170   22.9280 C.3   224  CYS224      0.0983
    180  SG         7.8910  -15.2310   21.6800 S.3   224  CYS224     -0.0798
    181  N          9.5720  -13.2500   31.6640 N.3   230  TYR230     -0.1227
    182  CA         9.4810  -11.8170   31.3830 C.3   230  TYR230      0.1736
    183  C         10.3490  -11.3630   30.2260 C.2   230  TYR230      0.2596
    184  O         11.4110  -11.9260   30.0360 O.2   230  TYR230     -0.2718
    185  CB         9.8570  -10.9890   32.6580 C.3   230  TYR230      0.0548
    186  CG         9.0120  -11.3900   33.8230 C.ar  230  TYR230     -0.0200
    187  CD1        7.7320  -10.7470   33.8940 C.ar  230  TYR230     -0.0009
    188  CD2        9.3970  -12.3750   34.7510 C.ar  230  TYR230     -0.0009
    189  CE1        6.8490  -11.0990   34.9330 C.ar  230  TYR230      0.0417
    190  CE2        8.5470  -12.6820   35.8210 C.ar  230  TYR230      0.0417
    191  CZ         7.2950  -12.0800   35.8780 C.ar  230  TYR230      0.1957
    192  OH         6.3630  -12.3690   36.8570 O.3   230  TYR230     -0.2866
    193  N          9.8780  -10.3300   29.5550 N.am  231  GLY231     -0.1942
    194  CA        10.7410   -9.7960   28.4570 C.3   231  GLY231      0.2014
    195  C         11.8460   -8.9330   29.1060 C.2   231  GLY231      0.2639
    196  O         11.6040   -8.2550   30.1560 O.2   231  GLY231     -0.2714
    197  N         13.0140   -9.0570   28.4440 N.am  232  PHE232     -0.1959
    198  CA        14.1970   -8.2790   28.8520 C.3   232  PHE232      0.1771
    199  C         14.5080   -7.2730   27.7180 C.2   232  PHE232      0.2619
    200  O         14.4400   -7.5570   26.4990 O.2   232  PHE232     -0.2715
    201  CB        15.4000   -9.1650   29.1700 C.3   232  PHE232      0.0574
    202  CG        15.2400   -9.9260   30.4620 C.ar  232  PHE232     -0.0200
    203  CD1       14.3770  -11.0110   30.5230 C.ar  232  PHE232     -0.0042
    204  CD2       15.9310   -9.4720   31.5850 C.ar  232  PHE232     -0.0042
    205  CE1       14.1170  -11.6950   31.7330 C.ar  232  PHE232     -0.0003
    206  CE2       15.7360  -10.1450   32.8230 C.ar  232  PHE232     -0.0003
    207  CZ        14.8410  -11.2560   32.8990 C.ar  232  PHE232     -0.0000
    208  N         14.8610   -6.0810   28.1310 N.am  233  TYR233     -0.1974
    209  CA        15.1760   -4.8900   27.3690 C.3   233  TYR233      0.1639
    210  C         16.4540   -4.2170   27.8170 C.2   233  TYR233      0.2290
    211  O         16.8160   -4.1890   29.0270 O.2   233  TYR233     -0.2864
    212  CB        14.0240   -3.8320   27.6250 C.3   233  TYR233      0.0560
    213  CG        12.6530   -4.3650   27.2310 C.ar  233  TYR233     -0.0198
    214  CD1       11.9460   -5.2040   28.1440 C.ar  233  TYR233     -0.0009
    215  CD2       12.0810   -4.1340   25.9900 C.ar  233  TYR233     -0.0009
    216  CE1       10.7040   -5.7700   27.8730 C.ar  233  TYR233      0.0417
    217  CE2       10.8420   -4.6740   25.7240 C.ar  233  TYR233      0.0417
    218  CZ        10.1430   -5.5090   26.6150 C.ar  233  TYR233      0.1957
    219  OH         8.9750   -6.0560   26.2130 O.3   233  TYR233     -0.2866
@<TRIPOS>BOND
     1     1     2    1
     2     2     5    1
     3     2     3    1
     4     5     6    1
     5     6     7    1
     6     7     9   ar
     7     7     8   ar
     8     3     4    2
     9     3    10   am
    10    10    11    1
    11    11    14    1
    12    11    12    1
    13    24    23    1
    14    25    23    1
    15    14    15    1
    16    12    13    2
    17    12    18   am
    18    23    22    1
    19    18    19    1
    20    22    19    1
    21    15    16    1
    22    15    17    1
    23    19    20    1
    24    20    26   am
    25    20    21    2
    26    73    72    1
    27    73    74    1
    28    57    56    2
    29    69    70    1
    30    69    68    1
    31    69    72    1
    32    26    27    1
    33    70    71    2
    34    29    28    2
    35    56    55    1
    36    74    75    1
    37    75    76    1
    38    28    27    1
    39    27    30    1
    40    30    31    1
    41    55    58    1
    42    55    54    1
    43    58    59    1
    44   124   123    2
    45    45    44    2
    46   122   123    1
    47   122   121    1
    48    59    61   ar
    49    59    60   ar
    50    64    61   ar
    51    64    66   ar
    52    42    43    1
    53    44    43    1
    54    61    63   ar
    55    60    62   ar
    56    66    67   ar
    57    35    34    2
    58   121   114   am
    59    43    46    1
    60    46    47    1
    61   115   114    2
    62   128   127    2
    63    63    62   ar
    64    63    65   ar
    65    34    33    1
    66   114   113    1
    67    67    65   ar
    68    49    47   ar
    69    49    51   ar
    70    47    48   ar
    71   116   113    1
    72   116   117    1
    73   127   126    1
    74   125   126    1
    75   113   112    1
    76   129   126    1
    77   129   130    1
    78    33    32    1
    79    33    36    1
    80    39    41   ar
    81    39    37   ar
    82    51    52   ar
    83   117   118    1
    84    48    50   ar
    85   109   108    2
    86    41    40   ar
    87   112   108   am
    88    36    37    1
    89    37    38   ar
    90   108   107    1
    91   111   110    1
    92   111   180    1
    93    52    50   ar
    94    52    53    1
    95   110   107    1
    96    40    38   ar
    97   118   120   ar
    98   118   119   ar
    99   107   106    1
   100   106   103   am
   101   134   133    2
   102   180   179    1
   103   135   137    1
   104   135   136    1
   105   135   132    1
   106   103   102    1
   107   103   104    2
   108   141   140    2
   109   102   105    1
   110   102   101    1
   111   133   132    1
   112   133   138   am
   113   131   132    1
   114   179   176    1
   115    96    95    2
   116    83    82    1
   117    84    82    1
   118    82    81    1
   119   140   139    1
   120   140   144   am
   121   139   138    1
   122   139   142    1
   123   101    95   am
   124    95    94    1
   125   176   175    1
   126   176   177    1
   127   175   173   am
   128   145   144    1
   129   145   148    1
   130   145   146    1
   131   143   142    1
   132   173   172    1
   133   173   174    2
   134   172   171    1
   135    81    78    1
   136   148   149    1
   137   178   177    2
   138   171   164   am
   139    93    94    1
   140    78    77    1
   141    78    79    1
   142    94    97    1
   143   158   146   am
   144   158   159    1
   145   161   160    2
   146   146   147    2
   147   217   215   ar
   148   217   218   ar
   149    97    98    1
   150   215   213   ar
   151   219   218    1
   152   160   159    1
   153   160   162   am
   154    79    80    2
   155    98   100   ar
   156    98    99   ar
   157   149   150   ar
   158   149   151   ar
   159   200   199    2
   160   218   216   ar
   161   150   152   ar
   162   164   163    1
   163   164   165    2
   164   162   163    1
   165   163   166    1
   166   213   212    1
   167   213   214   ar
   168   209   212    1
   169   209   210    1
   170   209   208    1
   171   151   154   ar
   172   151   153   ar
   173   199   208   am
   174   199   198    1
   175   210   211    2
   176   216   214   ar
   177   154   156   ar
   178   152   153   ar
   179   166   167    1
   180   197   198    1
   181   197   195   am
   182   194   195    1
   183   194   193    1
   184   167   168    1
   185   153   155   ar
   186   198   201    1
   187   195   196    2
   188   201   202    1
   189   156   157   ar
   190   193   183   am
   191    92    90    1
   192   168   170   ar
   193   168   169   ar
   194   155   157   ar
   195   184   183    2
   196   183   182    1
   197   202   203   ar
   198   202   204   ar
   199   203   205   ar
   200    90    89    1
   201    91    89    1
   202   182   181    1
   203   182   185    1
   204    89    86    1
   205   204   206   ar
   206   205   207   ar
   207   185   186    1
   208   206   207   ar
   209    86    85    1
   210    86    87    1
   211   186   187   ar
   212   186   188   ar
   213    87    88    2
   214   187   189   ar
   215   188   190   ar
   216   189   191   ar
   217   190   191   ar
   218   191   192    1
