@<TRIPOS>MOLECULE
tmp/1tmgA04.pdb
 60 58 0 0 0
SMALL
GASTEIGER

@<TRIPOS>ATOM
      1  N         47.8340   47.6700    2.1340 N.3   127  GLY127     -0.1210
      2  CA        48.3560   47.5710    0.7730 C.3   127  GLY127      0.1956
      3  C         47.4790   46.6370   -0.0510 C.2   127  GLY127      0.2612
      4  O         46.3740   46.2650    0.3680 O.2   127  GLY127     -0.2717
      5  N         47.9980   46.2680   -1.2210 N.am  128  GLY128     -0.1942
      6  CA        47.2850   45.3480   -2.1170 C.3   128  GLY128      0.1998
      7  C         48.3010   44.6700   -3.0030 C.2   128  GLY128      0.2480
      8  O         49.4780   45.0230   -2.9920 O.2   128  GLY128     -0.2729
      9  N         47.8600   43.6740   -3.7810 N.am  129  PRO129     -0.2726
     10  CA        48.7820   42.8870   -4.6010 C.3   129  PRO129      0.1402
     11  C         49.2220   43.5590   -5.8770 C.2   129  PRO129      0.2269
     12  O         50.2070   43.0670   -6.4150 O.2   129  PRO129     -0.2865
     13  CB        47.9690   41.6210   -4.9610 C.3   129  PRO129      0.0296
     14  CG        46.5680   42.0590   -4.8940 C.3   129  PRO129      0.0237
     15  CD        46.4840   43.1640   -3.8190 C.3   129  PRO129      0.0939
     16  N         53.1840   43.0710    4.0750 N.3   154  GLY154     -0.1210
     17  CA        52.1210   42.1100    3.7420 C.3   154  GLY154      0.1956
     18  C         52.2760   40.8020    4.5340 C.2   154  GLY154      0.2612
     19  O         53.3640   40.4920    5.0680 O.2   154  GLY154     -0.2717
     20  N         51.1740   40.0110    4.5740 N.am  155  ASN155     -0.1960
     21  CA        51.1600   38.7540    5.3450 C.3   155  ASN155      0.1819
     22  C         50.8950   37.5850    4.4170 C.2   155  ASN155      0.2621
     23  O         50.0850   36.6980    4.7520 O.2   155  ASN155     -0.2715
     24  CB        50.0290   38.7580    6.3890 C.3   155  ASN155      0.1195
     25  CG        50.0880   39.9690    7.2880 C.2   155  ASN155      0.2630
     26  OD1       51.1920   40.4630    7.6080 O.2   155  ASN155     -0.2716
     27  ND2       48.9250   40.4370    7.7080 N.am  155  ASN155     -0.0877
     28  N         51.6400   37.5500    3.3060 N.am  156  GLU156     -0.1977
     29  CA        51.3720   36.5190    2.2560 C.3   156  GLU156      0.1602
     30  C         52.3110   35.3260    2.3070 C.2   156  GLU156      0.2287
     31  O         52.2560   34.4390    1.4110 O.2   156  GLU156     -0.2864
     32  CB        51.4090   37.1760    0.8720 C.3   156  GLU156      0.0415
     33  CG        50.3620   38.2570    0.6570 C.3   156  GLU156      0.1163
     34  CD        48.9470   37.7310    0.9450 C.2   156  GLU156      0.3649
     35  OE1       48.6090   36.6720    0.3720 O.co2 156  GLU156     -0.2457
     36  OE2       48.2050   38.3080    1.7710 O.co2 156  GLU156     -0.2457
     37  N         58.4780   37.1430   -5.0710 N.3   163  SER163     -0.1202
     38  CA        58.2180   38.1560   -4.0360 C.3   163  SER163      0.2020
     39  C         56.7260   38.1340   -3.6600 C.2   163  SER163      0.2619
     40  O         55.8670   38.0470   -4.5170 O.2   163  SER163     -0.2717
     41  CB        58.5590   39.5190   -4.5880 C.3   163  SER163      0.2103
     42  OG        58.1370   40.5470   -3.6860 O.3   163  SER163     -0.2182
     43  N         56.4060   38.2250   -2.3720 N.am  164  THR164     -0.1938
     44  CA        55.0120   38.3450   -1.9620 C.3   164  THR164      0.2028
     45  C         54.7720   39.6640   -1.2170 C.2   164  THR164      0.2642
     46  O         53.7340   39.8330   -0.5720 O.2   164  THR164     -0.2714
     47  CB        54.6050   37.1800   -1.0540 C.3   164  THR164      0.1808
     48  OG1       55.4160   37.1690    0.1180 O.3   164  THR164     -0.2208
     49  CG2       54.9010   35.7960   -1.7400 C.3   164  THR164      0.0379
     50  N         55.6760   40.6230   -1.4160 N.am  165  VAL165     -0.1963
     51  CA        55.5260   41.9590   -0.8080 C.3   165  VAL165      0.1727
     52  C         54.3830   42.7440   -1.4860 C.2   165  VAL165      0.2616
     53  O         54.2860   42.7770   -2.7130 O.2   165  VAL165     -0.2715
     54  CB        56.8760   42.7310   -0.8800 C.3   165  VAL165      0.0290
     55  CG1       56.7580   44.2170   -0.3230 C.3   165  VAL165      0.0023
     56  CG2       57.9870   41.9520   -0.1480 C.3   165  VAL165      0.0023
     57  N         53.5250   43.3880   -0.6920 N.am  166  GLY166     -0.1955
     58  CA        52.4610   44.1950   -1.2370 C.3   166  GLY166      0.1869
     59  C         52.8970   45.6120   -1.5940 C.2   166  GLY166      0.2309
     60  O         53.9490   46.0700   -1.1610 O.2   166  GLY166     -0.2863
@<TRIPOS>BOND
     1    12    11    2
     2    11    10    1
     3    37    38    1
     4    13    14    1
     5    13    10    1
     6    14    15    1
     7    10     9    1
     8    41    38    1
     9    41    42    1
    10    40    39    2
    11    38    39    1
    12    15     9    1
    13     9     7   am
    14    39    43   am
    15     7     8    2
    16     7     6    1
    17    53    52    2
    18    43    44    1
    19     6     5    1
    20    44    45    1
    21    44    47    1
    22    49    47    1
    23    59    58    1
    24    59    60    2
    25    52    51    1
    26    52    57   am
    27    50    45   am
    28    50    51    1
    29    58    57    1
    30     5     3   am
    31    45    46    2
    32    47    48    1
    33    54    51    1
    34    54    55    1
    35    54    56    1
    36     3     4    2
    37     3     2    1
    38    35    34   ar
    39    33    32    1
    40    33    34    1
    41     2     1    1
    42    32    29    1
    43    34    36   ar
    44    31    30    2
    45    29    30    1
    46    29    28    1
    47    28    22   am
    48    17    16    1
    49    17    18    1
    50    22    23    2
    51    22    21    1
    52    18    20   am
    53    18    19    2
    54    20    21    1
    55    21    24    1
    56    24    25    1
    57    25    26    2
    58    25    27   am
