@<TRIPOS>MOLECULE
tmp/1tmgA03.pdb
 70 69 0 0 0
SMALL
GASTEIGER

@<TRIPOS>ATOM
      1  N         40.1300   59.0690   18.9530 N.3    37  SER37      -0.1217
      2  CA        40.7350   60.1900   19.6970 C.3    37  SER37       0.1889
      3  C         40.2590   60.2690   21.1390 C.2    37  SER37       0.2288
      4  O         40.9010   60.9380   21.9580 O.2    37  SER37      -0.2866
      5  CB        40.5010   61.5320   18.9680 C.3    37  SER37       0.2089
      6  OG        39.1420   61.9060   18.9970 O.3    37  SER37      -0.2183
      7  N         45.4230   62.7880   19.7830 N.3    44  VAL44      -0.1231
      8  CA        45.4320   62.9680   18.3360 C.3    44  VAL44       0.1692
      9  C         45.4710   64.4830   18.0470 C.2    44  VAL44       0.2592
     10  O         44.6270   65.2260   18.5630 O.2    44  VAL44      -0.2718
     11  CB        44.1830   62.3110   17.6870 C.3    44  VAL44       0.0266
     12  CG1       44.1180   62.6030   16.1500 C.3    44  VAL44       0.0020
     13  CG2       44.1640   60.8020   17.9420 C.3    44  VAL44       0.0020
     14  N         46.4470   64.9090   17.2380 N.am   45  ALA45      -0.1966
     15  CA        46.7150   66.3380   16.9970 C.3    45  ALA45       0.1728
     16  C         45.8470   66.8760   15.8490 C.2    45  ALA45       0.2617
     17  O         45.6320   68.0950   15.7560 O.2    45  ALA45      -0.2715
     18  CB        48.2140   66.5490   16.6360 C.3    45  ALA45       0.0334
     19  N         45.3840   66.0040   14.9530 N.am   46  GLY46      -0.1940
     20  CA        44.6190   66.4810   13.8040 C.3    46  GLY46       0.2014
     21  C         44.3950   65.3360   12.8500 C.2    46  GLY46       0.2639
     22  O         44.6310   64.1630   13.1900 O.2    46  GLY46      -0.2714
     23  N         43.9090   65.6590   11.6610 N.am   47  GLY47      -0.1939
     24  CA        43.6510   64.6070   10.6740 C.3    47  GLY47       0.2014
     25  C         42.5740   65.0040    9.6800 C.2    47  GLY47       0.2639
     26  O         42.1050   66.1530    9.6640 O.2    47  GLY47      -0.2714
     27  N         42.1990   64.0400    8.8540 N.am   48  ALA48      -0.1963
     28  CA        41.1770   64.2530    7.8110 C.3    48  ALA48       0.1728
     29  C         40.7450   62.9050    7.3430 C.2    48  ALA48       0.2616
     30  O         41.5260   61.9380    7.4080 O.2    48  ALA48      -0.2715
     31  CB        41.8010   65.0430    6.6160 C.3    48  ALA48       0.0334
     32  N         39.4950   62.8200    6.8550 N.am   49  SER49      -0.1950
     33  CA        39.0100   61.5720    6.2740 C.3    49  SER49       0.1924
     34  C         38.8490   61.6600    4.7710 C.2    49  SER49       0.2314
     35  O         38.2750   62.6480    4.2710 O.2    49  SER49      -0.2863
     36  CB        37.6470   61.1920    6.8690 C.3    49  SER49       0.2116
     37  OG        37.1950   60.0290    6.1600 O.3    49  SER49      -0.2180
     38  N         32.9720   60.2240    7.4310 N.3    55  THR55      -0.1203
     39  CA        33.6190   61.5100    7.2900 C.3    55  THR55       0.1994
     40  C         34.4060   61.9480    8.5120 C.2    55  THR55       0.2618
     41  O         35.0810   62.9770    8.4310 O.2    55  THR55      -0.2717
     42  CB        32.6100   62.6530    6.9200 C.3    55  THR55       0.1784
     43  OG1       31.6360   62.7500    7.9520 O.3    55  THR55      -0.2211
     44  CG2       31.8270   62.3200    5.6360 C.3    55  THR55       0.0376
     45  N         34.3430   61.1870    9.6150 N.am   56  ASN56      -0.1960
     46  CA        35.0270   61.5800   10.8420 C.3    56  ASN56       0.1804
     47  C         36.3100   60.7210   11.0330 C.2    56  ASN56       0.2463
     48  O         36.2000   59.5140   11.2950 O.2    56  ASN56      -0.2730
     49  CB        34.1160   61.3560   12.0410 C.3    56  ASN56       0.1195
     50  CG        34.7280   61.8710   13.3390 C.2    56  ASN56       0.2630
     51  OD1       35.8780   62.2970   13.3700 O.2    56  ASN56      -0.2716
     52  ND2       33.9320   61.8850   14.4070 N.am   56  ASN56      -0.0877
     53  N         37.4940   61.3050   10.8630 N.am   57  PRO57      -0.2716
     54  CA        38.7310   60.5030   10.9780 C.3    57  PRO57       0.1536
     55  C         39.0150   60.1100   12.4370 C.2    57  PRO57       0.2598
     56  O         39.9070   59.2500   12.6720 O.2    57  PRO57      -0.2715
     57  CB        39.8180   61.4750   10.4660 C.3    57  PRO57       0.0310
     58  CG        39.2770   62.8470   10.8690 C.3    57  PRO57       0.0237
     59  CD        37.7910   62.7260   10.5920 C.3    57  PRO57       0.0939
     60  N         38.2730   60.7110   13.3830 N.am   58  PHE58      -0.1974
     61  CA        38.4920   60.4790   14.8150 C.3    58  PHE58       0.1639
     62  C         37.5710   59.4120   15.3760 C.2    58  PHE58       0.2290
     63  O         37.5390   59.1800   16.5860 O.2    58  PHE58      -0.2864
     64  CB        38.3750   61.7970   15.5770 C.3    58  PHE58       0.0560
     65  CG        39.2070   62.8910   14.9600 C.ar   58  PHE58      -0.0200
     66  CD1       40.5900   62.7030   14.7410 C.ar   58  PHE58      -0.0042
     67  CD2       38.6000   64.0850   14.5470 C.ar   58  PHE58      -0.0042
     68  CE1       41.3550   63.7080   14.1510 C.ar   58  PHE58      -0.0003
     69  CE2       39.3590   65.1140   13.9470 C.ar   58  PHE58      -0.0003
     70  CZ        40.7390   64.9400   13.7500 C.ar   58  PHE58      -0.0000
@<TRIPOS>BOND
     1    35    34    2
     2    34    33    1
     3    44    42    1
     4    37    36    1
     5    33    32    1
     6    33    36    1
     7    31    28    1
     8    32    29   am
     9    42    39    1
    10    42    43    1
    11    39    38    1
    12    39    40    1
    13    29    30    2
    14    29    28    1
    15    28    27    1
    16    41    40    2
    17    40    45   am
    18    27    25   am
    19    45    46    1
    20    26    25    2
    21    25    24    1
    22    57    58    1
    23    57    54    1
    24    59    53    1
    25    59    58    1
    26    24    23    1
    27    46    47    1
    28    46    49    1
    29    53    54    1
    30    53    47   am
    31    54    55    1
    32    47    48    2
    33    23    21   am
    34    49    50    1
    35    55    56    2
    36    55    60   am
    37    21    22    2
    38    21    20    1
    39    50    51    2
    40    50    52   am
    41    60    61    1
    42    70    69   ar
    43    70    68   ar
    44    20    19    1
    45    69    67   ar
    46    68    66   ar
    47    67    65   ar
    48    66    65   ar
    49    61    62    1
    50    61    64    1
    51    19    16   am
    52    65    64    1
    53    62    63    2
    54    17    16    2
    55    16    15    1
    56    12    11    1
    57    18    15    1
    58    15    14    1
    59    14     9   am
    60    11    13    1
    61    11     8    1
    62     9     8    1
    63     9    10    2
    64     8     7    1
    65     1     2    1
    66     5     6    1
    67     5     2    1
    68     2     3    1
    69     3     4    2
