@<TRIPOS>MOLECULE
tmp/1tmkA00.pdb
 173 167 0 0 0
SMALL
GASTEIGER

@<TRIPOS>ATOM
      1  N         -0.9770   41.9280    1.9060 N.3    12  ASP12      -0.1239
      2  CA         0.4630   42.0170    2.0120 C.3    12  ASP12       0.1674
      3  C          0.8870   43.4820    1.9800 C.2    12  ASP12       0.2266
      4  O          0.3240   44.3010    1.2320 O.2    12  ASP12      -0.2867
      5  CB         1.1150   41.2260    0.8720 C.3    12  ASP12       0.1410
      6  CG         0.8920   39.7340    1.0120 C.2    12  ASP12       0.3668
      7  OD1        1.6950   39.0950    1.7040 O.co2  12  ASP12      -0.2456
      8  OD2       -0.1160   39.2140    0.4980 O.co2  12  ASP12      -0.2456
      9  N          0.4220   45.3880    8.6790 N.3    16  LYS16      -0.1231
     10  CA         0.0810   44.3010    9.5880 C.3    16  LYS16       0.1693
     11  C          1.1960   43.7980   10.5020 C.2    16  LYS16       0.2592
     12  O          1.0270   43.7790   11.7110 O.2    16  LYS16      -0.2718
     13  CB        -0.5360   43.1440    8.7950 C.3    16  LYS16       0.0285
     14  CG        -0.9770   41.9640    9.6370 C.3    16  LYS16       0.0035
     15  CD        -1.7740   41.0050    8.7740 C.3    16  LYS16       0.0206
     16  CE        -0.9930   40.6680    7.5400 C.3    16  LYS16       0.1093
     17  NZ         0.3730   40.2660    7.9500 N.3    16  LYS16      -0.1314
     18  N          2.3460   43.4440    9.9430 N.am   17  THR17      -0.1953
     19  CA         3.4620   42.9370   10.7520 C.3    17  THR17       0.1897
     20  C          4.0080   43.9640   11.7580 C.2    17  THR17       0.2313
     21  O          4.2820   43.6270   12.9110 O.2    17  THR17      -0.2863
     22  CB         4.6150   42.3660    9.8590 C.3    17  THR17       0.1794
     23  OG1        4.1040   41.3500    8.9720 O.3    17  THR17      -0.2208
     24  CG2        5.6960   41.7790   10.7160 C.3    17  THR17       0.0378
     25  N          3.2040   33.9790   14.0850 N.3    35  LYS35      -0.1231
     26  CA         3.0190   34.2760   12.6770 C.3    35  LYS35       0.1693
     27  C          2.6200   33.0580   11.8430 C.2    35  LYS35       0.2592
     28  O          3.1240   31.9640   12.0450 O.2    35  LYS35      -0.2718
     29  CB         4.2910   34.8880   12.0780 C.3    35  LYS35       0.0285
     30  CG         4.1750   35.1260   10.5770 C.3    35  LYS35       0.0035
     31  CD         4.2810   36.6100   10.1890 C.3    35  LYS35       0.0206
     32  CE         3.6530   36.8330    8.8250 C.3    35  LYS35       0.1093
     33  NZ         2.1870   36.4800    8.8590 N.3    35  LYS35      -0.1314
     34  N          1.6840   33.2720   10.9270 N.am   36  PHE36      -0.1963
     35  CA         1.2410   32.2440   10.0000 C.3    36  PHE36       0.1756
     36  C          1.4200   32.8050    8.5850 C.2    36  PHE36       0.2461
     37  O          1.1150   33.9760    8.3270 O.2    36  PHE36      -0.2730
     38  CB        -0.2150   31.8710   10.2480 C.3    36  PHE36       0.0574
     39  CG        -0.4040   30.9950   11.4310 C.ar   36  PHE36      -0.0200
     40  CD1        0.2370   29.7640   11.5000 C.ar   36  PHE36      -0.0042
     41  CD2       -1.2070   31.3900   12.4850 C.ar   36  PHE36      -0.0042
     42  CE1        0.0720   28.9530   12.5990 C.ar   36  PHE36      -0.0003
     43  CE2       -1.3780   30.5790   13.5960 C.ar   36  PHE36      -0.0003
     44  CZ        -0.7400   29.3580   13.6560 C.ar   36  PHE36      -0.0000
     45  N          2.0420   32.0250    7.6880 N.am   37  PRO37      -0.2727
     46  CA         2.5550   30.6830    7.9890 C.3    37  PRO37       0.1402
     47  C          3.7440   30.6710    8.9240 C.2    37  PRO37       0.2269
     48  O          4.5780   31.5710    8.8830 O.2    37  PRO37      -0.2865
     49  CB         2.9020   30.1290    6.5990 C.3    37  PRO37       0.0296
     50  CG         3.2340   31.3610    5.8070 C.3    37  PRO37       0.0237
     51  CD         2.1790   32.3310    6.2490 C.3    37  PRO37       0.0939
     52  N          6.8010   29.2800    9.3610 N.3    39  ARG39      -0.1245
     53  CA         7.7900   28.6120    8.5250 C.3    39  ARG39       0.1563
     54  C          8.9100   27.8010    9.1700 C.2    39  ARG39       0.2260
     55  O          9.7050   27.1900    8.4530 O.2    39  ARG39      -0.2867
     56  CB         8.3890   29.6340    7.5390 C.3    39  ARG39       0.0307
     57  CG         7.3320   30.5100    6.8950 C.3    39  ARG39       0.0489
     58  CD         7.9260   31.5040    5.9610 C.3    39  ARG39       0.2205
     59  NE         6.9420   32.4800    5.4960 N.pl3  39  ARG39      -0.0865
     60  CZ         7.0030   33.1230    4.3330 C.cat  39  ARG39       0.5346
     61  NH1        7.9990   32.8910    3.4880 N.pl3  39  ARG39       0.1354
     62  NH2        6.0860   34.0360    4.0420 N.pl3  39  ARG39       0.1354
     63  N          5.9880   29.5940   -1.4620 N.3    51  LEU51      -0.1245
     64  CA         5.8880   31.0510   -1.4890 C.3    51  LEU51       0.1561
     65  C          7.1130   31.7620   -2.0620 C.2    51  LEU51       0.2260
     66  O          6.9820   32.7660   -2.7540 O.2    51  LEU51      -0.2867
     67  CB         5.5420   31.5950   -0.0810 C.3    51  LEU51       0.0270
     68  CG         4.1050   31.3630    0.4110 C.3    51  LEU51       0.0019
     69  CD1        4.0540   31.5020    1.9190 C.3    51  LEU51       0.0001
     70  CD2        3.0850   32.2990   -0.2660 C.3    51  LEU51       0.0001
     71  N         -1.4140   24.9490    4.4750 N.3    67  PHE67      -0.1241
     72  CA        -1.6090   26.1860    5.2440 C.3    67  PHE67       0.1605
     73  C         -2.4340   25.8770    6.4660 C.2    67  PHE67       0.2264
     74  O         -2.0460   26.2230    7.5650 O.2    67  PHE67      -0.2867
     75  CB        -2.3100   27.2810    4.4270 C.3    67  PHE67       0.0534
     76  CG        -1.3710   28.1400    3.6240 C.ar   67  PHE67      -0.0203
     77  CD1       -0.3930   28.9100    4.2570 C.ar   67  PHE67      -0.0042
     78  CD2       -1.4970   28.2240    2.2320 C.ar   67  PHE67      -0.0042
     79  CE1        0.4490   29.7560    3.5140 C.ar   67  PHE67      -0.0003
     80  CE2       -0.6660   29.0650    1.4770 C.ar   67  PHE67      -0.0003
     81  CZ         0.3030   29.8280    2.1110 C.ar   67  PHE67      -0.0000
     82  N         -1.5220   25.4310   10.9220 N.3    71  ARG71      -0.1245
     83  CA        -2.2200   26.0100   12.0590 C.3    71  ARG71       0.1563
     84  C         -2.5220   24.8970   13.0300 C.2    71  ARG71       0.2260
     85  O         -2.1890   24.9960   14.2000 O.2    71  ARG71      -0.2867
     86  CB        -3.5060   26.6900   11.6170 C.3    71  ARG71       0.0307
     87  CG        -3.2640   28.0490   10.9760 C.3    71  ARG71       0.0489
     88  CD        -4.5410   28.7380   10.6390 C.3    71  ARG71       0.2205
     89  NE        -5.2100   28.2730    9.4330 N.pl3  71  ARG71      -0.0865
     90  CZ        -4.8580   28.6060    8.1940 C.cat  71  ARG71       0.5346
     91  NH1       -3.7830   29.3650    7.9880 N.pl3  71  ARG71       0.1354
     92  NH2       -5.5660   28.1390    7.1630 N.pl3  71  ARG71       0.1354
     93  N         -1.8970   36.9450   10.9470 N.3    92  ARG92      -0.1231
     94  CA        -2.5820   36.0900    9.9450 C.3    92  ARG92       0.1694
     95  C         -3.0760   34.7840   10.6170 C.2    92  ARG92       0.2592
     96  O         -2.4640   34.3100   11.5660 O.2    92  ARG92      -0.2718
     97  CB        -1.6870   35.7300    8.7440 C.3    92  ARG92       0.0321
     98  CG        -1.3660   36.8760    7.8010 C.3    92  ARG92       0.0489
     99  CD        -0.7520   36.3370    6.5240 C.3    92  ARG92       0.2205
    100  NE        -0.3770   37.3900    5.5760 N.pl3  92  ARG92      -0.0865
    101  CZ        -1.2230   38.0850    4.8300 C.cat  92  ARG92       0.5346
    102  NH1       -2.5200   37.8720    4.8930 N.pl3  92  ARG92       0.1354
    103  NH2       -0.7590   38.9620    3.9710 N.pl3  92  ARG92       0.1354
    104  N         -4.1650   34.2100   10.1170 N.am   93  TYR93      -0.1976
    105  CA        -4.7170   32.9780   10.6770 C.3    93  TYR93       0.1639
    106  C         -5.7280   32.3990    9.6760 C.2    93  TYR93       0.2290
    107  O         -5.5170   32.4820    8.4670 O.2    93  TYR93      -0.2864
    108  CB        -5.3850   33.3010   12.0220 C.3    93  TYR93       0.0560
    109  CG        -5.7920   32.1470   12.9030 C.ar   93  TYR93      -0.0198
    110  CD1       -4.8600   31.2020   13.3350 C.ar   93  TYR93      -0.0009
    111  CD2       -7.0870   32.0740   13.4090 C.ar   93  TYR93      -0.0009
    112  CE1       -5.2080   30.2040   14.2670 C.ar   93  TYR93       0.0417
    113  CE2       -7.4480   31.0890   14.3430 C.ar   93  TYR93       0.0417
    114  CZ        -6.5050   30.1660   14.7700 C.ar   93  TYR93       0.1957
    115  OH        -6.8420   29.2390   15.7460 O.3    93  TYR93      -0.2866
    116  N         -6.9480   34.5320    6.4470 N.3    96  SER96      -0.1202
    117  CA        -6.0140   34.6050    5.3120 C.3    96  SER96       0.2020
    118  C         -6.1040   33.2990    4.5130 C.2    96  SER96       0.2619
    119  O         -6.1650   33.3330    3.2820 O.2    96  SER96      -0.2717
    120  CB        -4.5800   34.8020    5.8020 C.3    96  SER96       0.2103
    121  OG        -4.1720   36.1670    5.7550 O.3    96  SER96      -0.2182
    122  N         -6.1780   32.1650    5.2250 N.am   97  GLY97      -0.1956
    123  CA        -6.2810   30.8570    4.5850 C.3    97  GLY97       0.1869
    124  C         -7.4400   30.7560    3.6030 C.2    97  GLY97       0.2309
    125  O         -7.2810   30.3310    2.4690 O.2    97  GLY97      -0.2863
    126  N         -7.1710   34.0150    0.5880 N.3   100  TYR100     -0.1227
    127  CA        -6.1490   33.9040   -0.4420 C.3   100  TYR100      0.1736
    128  C         -6.3740   32.7550   -1.4120 C.2   100  TYR100      0.2596
    129  O         -6.0400   32.8550   -2.6110 O.2   100  TYR100     -0.2718
    130  CB        -4.7420   33.8480    0.1540 C.3   100  TYR100      0.0548
    131  CG        -4.1760   35.2020    0.5730 C.ar  100  TYR100     -0.0200
    132  CD1       -4.4720   35.7440    1.8180 C.ar  100  TYR100     -0.0009
    133  CD2       -3.3300   35.9260   -0.2740 C.ar  100  TYR100     -0.0009
    134  CE1       -3.9440   36.9630    2.2100 C.ar  100  TYR100      0.0417
    135  CE2       -2.7900   37.1590    0.1080 C.ar  100  TYR100      0.0417
    136  CZ        -3.1030   37.6660    1.3560 C.ar  100  TYR100      0.1957
    137  OH        -2.5690   38.8520    1.7990 O.3   100  TYR100     -0.2866
    138  N         -6.9710   31.6790   -0.8950 N.am  101  SER101     -0.1952
    139  CA        -7.2680   30.4970   -1.7080 C.3   101  SER101      0.1924
    140  C         -8.5600   30.6670   -2.5040 C.2   101  SER101      0.2314
    141  O         -8.6170   30.3610   -3.7150 O.2   101  SER101     -0.2863
    142  CB        -7.3280   29.2380   -0.8290 C.3   101  SER101      0.2116
    143  OG        -6.0190   28.7090   -0.6130 O.3   101  SER101     -0.2180
    144  N          7.5200   37.3920   -3.2070 N.3   137  GLU137     -0.1245
    145  CA         6.8510   36.1370   -2.9090 C.3   137  GLU137      0.1567
    146  C          5.6430   35.9470   -3.8130 C.2   137  GLU137      0.2260
    147  O          5.1000   36.9030   -4.3600 O.2   137  GLU137     -0.2867
    148  CB         6.5120   35.9990   -1.4270 C.3   137  GLU137      0.0388
    149  CG         7.7710   35.7730   -0.5950 C.3   137  GLU137      0.1160
    150  CD         7.5240   35.2180    0.8040 C.2   137  GLU137      0.3649
    151  OE1        6.3550   35.1380    1.2620 O.co2 137  GLU137     -0.2457
    152  OE2        8.5280   34.8630    1.4660 O.co2 137  GLU137     -0.2457
    153  N          2.2150   35.4600   -3.9770 N.3   139  TYR139     -0.1227
    154  CA         0.9200   36.1610   -4.1540 C.3   139  TYR139      0.1736
    155  C          1.0020   37.6950   -4.2990 C.2   139  TYR139      0.2595
    156  O         -0.0100   38.3740   -4.4060 O.2   139  TYR139     -0.2718
    157  CB        -0.0300   35.8240   -3.0040 C.3   139  TYR139      0.0548
    158  CG        -0.3130   34.3510   -2.8100 C.ar  139  TYR139     -0.0200
    159  CD1       -0.3240   33.4730   -3.8990 C.ar  139  TYR139     -0.0009
    160  CD2       -0.6420   33.8490   -1.5550 C.ar  139  TYR139     -0.0009
    161  CE1       -0.6670   32.1430   -3.7520 C.ar  139  TYR139      0.0417
    162  CE2       -0.9880   32.5130   -1.3900 C.ar  139  TYR139      0.0417
    163  CZ        -1.0070   31.6630   -2.5000 C.ar  139  TYR139      0.1957
    164  OH        -1.4240   30.3540   -2.3850 O.3   139  TYR139     -0.2866
    165  N          2.2190   38.2220   -4.3260 N.am  140  GLU140     -0.1979
    166  CA         2.4400   39.6520   -4.4320 C.3   140  GLU140      0.1602
    167  C          2.4230   40.2320   -5.8390 C.2   140  GLU140      0.2287
    168  O          3.4570   40.6140   -6.3750 O.2   140  GLU140     -0.2864
    169  CB         3.7220   40.0090   -3.6920 C.3   140  GLU140      0.0415
    170  CG         3.7230   39.4160   -2.3110 C.3   140  GLU140      0.1163
    171  CD         4.8830   39.8550   -1.5000 C.2   140  GLU140      0.3649
    172  OE1        6.0290   39.6580   -1.9430 O.co2 140  GLU140     -0.2457
    173  OE2        4.6550   40.4070   -0.4140 O.co2 140  GLU140     -0.2457
@<TRIPOS>BOND
     1   168   167    2
     2   167   166    1
     3   166   165    1
     4   166   169    1
     5   156   155    2
     6   147   146    2
     7   165   155   am
     8   155   154    1
     9   154   153    1
    10   154   157    1
    11   159   161   ar
    12   159   158   ar
    13   146   145    1
    14   161   163   ar
    15   141   140    2
    16   169   170    1
    17   144   145    1
    18   157   158    1
    19   145   148    1
    20   158   160   ar
    21    66    65    2
    22   129   128    2
    23   140   139    1
    24   163   164    1
    25   163   162   ar
    26   170   171    1
    27    65    64    1
    28   172   171   ar
    29   139   138    1
    30   139   142    1
    31   160   162   ar
    32   171   173   ar
    33    64    63    1
    34    64    67    1
    35   148   149    1
    36   128   138   am
    37   128   127    1
    38   142   143    1
    39   149   150    1
    40   127   130    1
    41   127   126    1
    42   133   135   ar
    43   133   131   ar
    44    70    68    1
    45    67    68    1
    46   135   136   ar
    47   130   131    1
    48    68    69    1
    49     8     6   ar
    50   131   132   ar
    51   150   151   ar
    52   150   152   ar
    53     5     6    1
    54     5     2    1
    55     6     7   ar
    56     4     3    2
    57   136   137    1
    58   136   134   ar
    59    80    81   ar
    60    80    78   ar
    61   132   134   ar
    62     1     2    1
    63     3     2    1
    64    81    79   ar
    65    78    76   ar
    66   125   124    2
    67   119   118    2
    68    61    60    1
    69    79    77   ar
    70   124   123    1
    71    76    77   ar
    72    76    75    1
    73   103   101    1
    74    62    60    1
    75    60    59    2
    76    75    72    1
    77    71    72    1
    78   118   122   am
    79   118   117    1
    80   123   122    1
    81   101   102    1
    82   101   100    2
    83    72    73    1
    84   117   120    1
    85   117   116    1
    86    59    58    1
    87   100    99    1
    88   121   120    1
    89    50    51    1
    90    50    49    1
    91    58    57    1
    92    51    45    1
    93    73    74    2
    94    99    98    1
    95    49    46    1
    96    57    56    1
    97    92    90    1
    98    56    53    1
    99    16    17    1
   100    16    15    1
   101    45    46    1
   102    45    36   am
   103    98    97    1
   104    91    90    1
   105    46    47    1
   106    90    89    2
   107    37    36    2
   108    55    54    2
   109   107   106    2
   110    53    54    1
   111    53    52    1
   112    36    35    1
   113     9    10    1
   114    97    94    1
   115    15    14    1
   116    13    10    1
   117    13    14    1
   118    32    33    1
   119    32    31    1
   120    48    47    2
   121    23    22    1
   122    89    88    1
   123    10    11    1
   124   106   105    1
   125    22    24    1
   126    22    19    1
   127    18    11   am
   128    18    19    1
   129    94    95    1
   130    94    93    1
   131    35    38    1
   132    35    34    1
   133   104    95   am
   134   104   105    1
   135    31    30    1
   136    38    39    1
   137    11    12    2
   138    30    29    1
   139    95    96    2
   140    88    87    1
   141   105   108    1
   142    19    20    1
   143    82    83    1
   144    34    27   am
   145    87    86    1
   146    39    40   ar
   147    39    41   ar
   148    40    42   ar
   149    86    83    1
   150    20    21    2
   151    27    28    2
   152    27    26    1
   153   108   109    1
   154    83    84    1
   155    29    26    1
   156    41    43   ar
   157    42    44   ar
   158    26    25    1
   159   109   110   ar
   160   109   111   ar
   161    84    85    2
   162   110   112   ar
   163   111   113   ar
   164    43    44   ar
   165   112   114   ar
   166   113   114   ar
   167   114   115    1
