@<TRIPOS>MOLECULE
tmp/1tmnA00.pdb
 188 183 0 0 0
SMALL
GASTEIGER

@<TRIPOS>ATOM
      1  N         42.2270   13.5350    2.7230 N.3   110  TYR110     -0.1227
      2  CA        42.9520   13.7330    1.4730 C.3   110  TYR110      0.1736
      3  C         44.3810   14.1860    1.7490 C.2   110  TYR110      0.2595
      4  O         44.6170   15.1250    2.5610 O.2   110  TYR110     -0.2718
      5  CB        42.2110   14.8420    0.7110 C.3   110  TYR110      0.0548
      6  CG        42.7910   14.9980   -0.6810 C.ar  110  TYR110     -0.0200
      7  CD1       42.6120   14.0080   -1.5980 C.ar  110  TYR110     -0.0009
      8  CD2       43.5370   16.1060   -0.9840 C.ar  110  TYR110     -0.0009
      9  CE1       43.2170   14.1140   -2.8360 C.ar  110  TYR110      0.0417
     10  CE2       44.1300   16.2220   -2.2190 C.ar  110  TYR110      0.0417
     11  CZ        43.9940   15.2160   -3.1310 C.ar  110  TYR110      0.1957
     12  OH        44.6280   15.3220   -4.4070 O.3   110  TYR110     -0.2866
     13  N         45.2660   13.3190    1.3440 N.am  111  ASN111     -0.1960
     14  CA        46.6680   13.4370    1.7120 C.3   111  ASN111      0.1819
     15  C         47.4100   14.1820    0.6290 C.2   111  ASN111      0.2621
     16  O         48.4030   13.6420    0.1170 O.2   111  ASN111     -0.2715
     17  CB        47.3640   12.0530    1.9050 C.3   111  ASN111      0.1195
     18  CG        46.9630   11.3350    3.1890 C.2   111  ASN111      0.2630
     19  OD1       46.9460   11.9060    4.2970 O.2   111  ASN111     -0.2716
     20  ND2       46.8610   10.0400    3.1180 N.am  111  ASN111     -0.0877
     21  N         46.9100   15.2850    0.1780 N.am  112  ASN112     -0.1958
     22  CA        47.6630   16.0280   -0.8340 C.3   112  ASN112      0.1819
     23  C         47.2180   17.4920   -0.8740 C.2   112  ASN112      0.2621
     24  O         46.3190   17.8940   -0.0890 O.2   112  ASN112     -0.2715
     25  CB        47.5670   15.3410   -2.2210 C.3   112  ASN112      0.1195
     26  CG        48.9160   15.2690   -2.9590 C.2   112  ASN112      0.2630
     27  OD1       49.7740   16.1710   -2.8820 O.2   112  ASN112     -0.2716
     28  ND2       48.9280   14.4740   -3.9870 N.am  112  ASN112     -0.0877
     29  N         47.9200   18.2800   -1.6540 N.am  113  ALA113     -0.1963
     30  CA        47.6280   19.6910   -1.8560 C.3   113  ALA113      0.1728
     31  C         48.0430   19.9180   -3.2930 C.2   113  ALA113      0.2616
     32  O         48.7450   19.0290   -3.8170 O.2   113  ALA113     -0.2715
     33  CB        48.4510   20.6020   -0.9130 C.3   113  ALA113      0.0334
     34  N         47.4900   20.9080   -3.9690 N.am  114  PHE114     -0.1974
     35  CA        47.7190   21.1380   -5.4030 C.3   114  PHE114      0.1639
     36  C         47.2890   22.5210   -5.8470 C.2   114  PHE114      0.2290
     37  O         46.5760   23.2290   -5.1170 O.2   114  PHE114     -0.2864
     38  CB        47.0800   20.0370   -6.3080 C.3   114  PHE114      0.0560
     39  CG        45.5560   19.8410   -6.1680 C.ar  114  PHE114     -0.0200
     40  CD1       44.7250   20.4080   -7.1100 C.ar  114  PHE114     -0.0042
     41  CD2       45.0200   19.0650   -5.1540 C.ar  114  PHE114     -0.0042
     42  CE1       43.3410   20.2170   -7.0360 C.ar  114  PHE114     -0.0003
     43  CE2       43.6220   18.8500   -5.0670 C.ar  114  PHE114     -0.0003
     44  CZ        42.7820   19.4390   -6.0150 C.ar  114  PHE114     -0.0000
     45  N         49.3760    9.6480    7.8000 N.3   129  THR129     -0.1203
     46  CA        50.4140    9.9450    6.8080 C.3   129  THR129      0.1994
     47  C         50.7130   11.4240    6.8730 C.2   129  THR129      0.2617
     48  O         51.8160   11.8660    6.4850 O.2   129  THR129     -0.2717
     49  CB        49.9640    9.6650    5.3600 C.3   129  THR129      0.1784
     50  OG1       49.4160    8.3540    5.3360 O.3   129  THR129     -0.2211
     51  CG2       51.1290    9.7780    4.3340 C.3   129  THR129      0.0376
     52  N         49.6670   12.1880    7.0440 N.am  130  PHE130     -0.1975
     53  CA        49.7660   13.6440    6.9910 C.3   130  PHE130      0.1639
     54  C         48.8420   14.2280    8.0230 C.2   130  PHE130      0.2290
     55  O         47.7490   13.6550    8.2500 O.2   130  PHE130     -0.2864
     56  CB        49.2810   14.1810    5.6530 C.3   130  PHE130      0.0560
     57  CG        50.3660   14.2320    4.5710 C.ar  130  PHE130     -0.0200
     58  CD1       50.3060   13.4140    3.4720 C.ar  130  PHE130     -0.0042
     59  CD2       51.3720   15.1650    4.6790 C.ar  130  PHE130     -0.0042
     60  CE1       51.2560   13.5340    2.4640 C.ar  130  PHE130     -0.0003
     61  CE2       52.3190   15.2970    3.6850 C.ar  130  PHE130     -0.0003
     62  CZ        52.2550   14.4780    2.5670 C.ar  130  PHE130     -0.0000
     63  N         47.6520   19.9210    5.3360 N.3   133  LEU133     -0.1245
     64  CA        48.8270   20.2530    4.5080 C.3   133  LEU133      0.1561
     65  C         49.2970   21.6990    4.4500 C.2   133  LEU133      0.2260
     66  O         50.5290   21.9250    4.3510 O.2   133  LEU133     -0.2867
     67  CB        48.7620   19.6240    3.1090 C.3   133  LEU133      0.0270
     68  CG        49.1320   18.1330    3.2190 C.3   133  LEU133      0.0019
     69  CD1       47.9360   17.2020    3.5370 C.3   133  LEU133      0.0001
     70  CD2       49.8660   17.7340    1.9500 C.3   133  LEU133      0.0001
     71  N         55.3060   23.7280    1.8240 N.3   139  VAL139     -0.1245
     72  CA        54.1630   23.1560    1.0520 C.3   139  VAL139      0.1561
     73  C         53.2960   24.2290    0.3790 C.2   139  VAL139      0.2260
     74  O         53.1450   24.1840   -0.8670 O.2   139  VAL139     -0.2867
     75  CB        53.3170   22.2530    1.9710 C.3   139  VAL139      0.0252
     76  CG1       51.9610   21.8300    1.3530 C.3   139  VAL139      0.0019
     77  CG2       54.1620   21.0590    2.4520 C.3   139  VAL139      0.0019
     78  N         55.4560   25.9480   -2.2590 N.3   142  HIS142     -0.1226
     79  CA        55.6520   25.0220   -3.4060 C.3   142  HIS142      0.1752
     80  C         54.4810   25.1780   -4.3710 C.2   142  HIS142      0.2595
     81  O         54.6910   25.3590   -5.5990 O.2   142  HIS142     -0.2718
     82  CB        55.8130   23.5590   -2.9290 C.3   142  HIS142      0.0759
     83  CG        55.8730   22.4890   -4.0410 C.ar  142  HIS142      0.0818
     84  ND1       57.0380   21.7300   -4.2930 N.ar  142  HIS142     -0.2268
     85  CD2       54.9010   22.0820   -4.8820 C.ar  142  HIS142      0.1154
     86  CE1       56.7530   20.8530   -5.3400 C.ar  142  HIS142      0.1986
     87  NE2       55.3980   21.0700   -5.7180 N.ar  142  HIS142     -0.2212
     88  N         53.3000   25.2210   -3.7560 N.am  143  GLU143     -0.1979
     89  CA        52.0420   25.3440   -4.4780 C.3   143  GLU143      0.1602
     90  C         51.8530   26.6710   -5.2060 C.2   143  GLU143      0.2287
     91  O         51.4730   26.7030   -6.4020 O.2   143  GLU143     -0.2864
     92  CB        50.8060   24.9660   -3.6370 C.3   143  GLU143      0.0415
     93  CG        50.8110   23.5100   -3.0870 C.3   143  GLU143      0.1163
     94  CD        51.1340   22.3850   -4.0890 C.2   143  GLU143      0.3649
     95  OE1       50.8670   22.4870   -5.3040 O.co2 143  GLU143     -0.2457
     96  OE2       51.2940   21.2210   -3.6520 O.co2 143  GLU143     -0.2457
     97  N         54.0140   27.0560   -8.3750 N.3   146  HIS146     -0.1241
     98  CA        53.4480   26.4350   -9.5870 C.3   146  HIS146      0.1621
     99  C         52.6630   27.4230  -10.4370 C.2   146  HIS146      0.2264
    100  O         52.7900   27.3920  -11.6840 O.2   146  HIS146     -0.2867
    101  CB        52.4770   25.2890   -9.2450 C.3   146  HIS146      0.0745
    102  CG        53.2050   23.9440   -9.0280 C.ar  146  HIS146      0.0817
    103  ND1       54.0520   23.3790  -10.0040 N.ar  146  HIS146     -0.2268
    104  CD2       53.1760   23.1280   -7.9800 C.ar  146  HIS146      0.1154
    105  CE1       54.4860   22.1500   -9.5390 C.ar  146  HIS146      0.1986
    106  NE2       53.9410   22.0040   -8.2760 N.ar  146  HIS146     -0.2212
    107  N         54.0460   19.7230  -17.6720 N.3   157  TYR157     -0.1241
    108  CA        54.0780   18.8400  -16.5210 C.3   157  TYR157      0.1605
    109  C         54.2610   17.3690  -16.8950 C.2   157  TYR157      0.2264
    110  O         53.4890   16.4580  -16.4890 O.2   157  TYR157     -0.2867
    111  CB        52.9050   19.0440  -15.6790 C.3   157  TYR157      0.0534
    112  CG        53.1080   18.7500  -14.1870 C.ar  157  TYR157     -0.0201
    113  CD1       52.5830   17.6060  -13.6050 C.ar  157  TYR157     -0.0009
    114  CD2       53.8180   19.6430  -13.4180 C.ar  157  TYR157     -0.0009
    115  CE1       52.7630   17.3540  -12.2340 C.ar  157  TYR157      0.0417
    116  CE2       54.0030   19.4040  -12.0630 C.ar  157  TYR157      0.0417
    117  CZ        53.4720   18.2580  -11.4750 C.ar  157  TYR157      0.1957
    118  OH        53.6340   18.0130  -10.0860 O.3   157  TYR157     -0.2866
    119  N         58.8010   20.8280  -11.0030 N.3   166  GLU166     -0.1245
    120  CA        58.7750   20.3740   -9.5790 C.3   166  GLU166      0.1567
    121  C         59.9550   20.8530   -8.7260 C.2   166  GLU166      0.2260
    122  O         59.7190   21.3390   -7.5960 O.2   166  GLU166     -0.2867
    123  CB        58.6310   18.8220   -9.4530 C.3   166  GLU166      0.0388
    124  CG        57.2180   18.2680   -9.7440 C.3   166  GLU166      0.1160
    125  CD        56.3860   18.7620   -8.5860 C.2   166  GLU166      0.3649
    126  OE1       55.4660   19.5710   -8.8270 O.co2 166  GLU166     -0.2457
    127  OE2       56.9170   18.7510   -7.4470 O.co2 166  GLU166     -0.2457
    128  N         61.6180   18.7760    2.3820 N.3   188  ILE188     -0.1231
    129  CA        60.2590   19.1360    1.9410 C.3   188  ILE188      0.1692
    130  C         59.1500   18.4010    2.7180 C.2   188  ILE188      0.2592
    131  O         59.0800   17.1470    2.6300 O.2   188  ILE188     -0.2718
    132  CB        60.0890   18.8600    0.4180 C.3   188  ILE188      0.0266
    133  CG1       61.1500   19.6220   -0.4090 C.3   188  ILE188      0.0019
    134  CG2       58.6810   19.2390   -0.0900 C.3   188  ILE188      0.0020
    135  CD1       60.9250   21.1470   -0.3290 C.3   188  ILE188      0.0001
    136  N         58.2620   19.1760    3.3680 N.am  189  GLY189     -0.1957
    137  CA        57.0190   18.6430    3.9740 C.3   189  GLY189      0.1869
    138  C         57.1850   18.0910    5.3840 C.2   189  GLY189      0.2309
    139  O         56.2440   17.4810    5.9370 O.2   189  GLY189     -0.2863
    140  N         54.3580   15.9770    7.5040 N.3   193  TYR193     -0.1241
    141  CA        54.4070   14.5560    7.0980 C.3   193  TYR193      0.1605
    142  C         54.6360   13.6340    8.2940 C.2   193  TYR193      0.2264
    143  O         55.3830   14.0540    9.2160 O.2   193  TYR193     -0.2867
    144  CB        55.5710   14.4180    6.1430 C.3   193  TYR193      0.0534
    145  CG        55.7400   13.0490    5.4800 C.ar  193  TYR193     -0.0201
    146  CD1       54.6970   12.4960    4.7900 C.ar  193  TYR193     -0.0009
    147  CD2       56.9440   12.3800    5.5810 C.ar  193  TYR193     -0.0009
    148  CE1       54.8410   11.2570    4.1870 C.ar  193  TYR193      0.0417
    149  CE2       57.0940   11.1370    4.9780 C.ar  193  TYR193      0.0417
    150  CZ        56.0390   10.5840    4.2840 C.ar  193  TYR193      0.1957
    151  OH        56.1730    9.3070    3.6590 O.3   193  TYR193     -0.2866
    152  N         59.2070   14.2640    3.1820 N.3   202  LEU202     -0.1231
    153  CA        58.7740   13.7040    1.9070 C.3   202  LEU202      0.1693
    154  C         59.9230   13.5200    0.9120 C.2   202  LEU202      0.2591
    155  O         59.8470   12.6880   -0.0290 O.2   202  LEU202     -0.2718
    156  CB        57.7740   14.7450    1.3580 C.3   202  LEU202      0.0284
    157  CG        56.6540   14.2120    0.4950 C.3   202  LEU202      0.0019
    158  CD1       56.0090   12.9440    1.0800 C.3   202  LEU202      0.0001
    159  CD2       55.5570   15.2930    0.4160 C.3   202  LEU202      0.0001
    160  N         60.8020   14.4900    0.8890 N.am  203  ARG203     -0.1980
    161  CA        61.8560   14.5520   -0.1110 C.3   203  ARG203      0.1597
    162  C         62.9960   15.3340    0.5290 C.2   203  ARG203      0.2287
    163  O         62.7250   16.1670    1.4310 O.2   203  ARG203     -0.2864
    164  CB        61.4410   15.3690   -1.3400 C.3   203  ARG203      0.0334
    165  CG        60.6560   14.6080   -2.4020 C.3   203  ARG203      0.0492
    166  CD        60.4970   15.4400   -3.7000 C.3   203  ARG203      0.2205
    167  NE        59.6290   16.6200   -3.5260 N.pl3 203  ARG203     -0.0865
    168  CZ        58.2760   16.6750   -3.5390 C.cat 203  ARG203      0.5346
    169  NH1       57.5150   15.5850   -3.6310 N.pl3 203  ARG203      0.1354
    170  NH2       57.6630   17.8610   -3.5910 N.pl3 203  ARG203      0.1354
    171  N         54.0180    8.6700  -12.5760 N.3   226  ASP226     -0.1239
    172  CA        54.2560   10.0120  -12.0020 C.3   226  ASP226      0.1674
    173  C         54.5700   11.0390  -13.0770 C.2   226  ASP226      0.2266
    174  O         55.5500   11.8100  -12.9870 O.2   226  ASP226     -0.2867
    175  CB        55.3790    9.9020  -10.9470 C.3   226  ASP226      0.1410
    176  CG        55.6210   11.2520  -10.2990 C.2   226  ASP226      0.3668
    177  OD1       54.6770   12.0810  -10.2100 O.co2 226  ASP226     -0.2456
    178  OD2       56.8060   11.5840  -10.0100 O.co2 226  ASP226     -0.2456
    179  N         58.1120   13.9120   -9.8240 N.3   231  HIS231     -0.1241
    180  CA        58.4530   14.0330   -8.4070 C.3   231  HIS231      0.1621
    181  C         59.6620   13.2000   -8.0320 C.2   231  HIS231      0.2264
    182  O         60.1520   13.3340   -6.8820 O.2   231  HIS231     -0.2867
    183  CB        57.3060   13.6030   -7.4450 C.3   231  HIS231      0.0745
    184  CG        56.0850   14.5180   -7.6330 C.ar  231  HIS231      0.0817
    185  ND1       55.0060   14.1660   -8.5100 N.ar  231  HIS231     -0.2268
    186  CD2       55.8390   15.7090   -7.0680 C.ar  231  HIS231      0.1154
    187  CE1       54.0750   15.2270   -8.4460 C.ar  231  HIS231      0.1986
    188  NE2       54.6100   16.1900   -7.5370 N.ar  231  HIS231     -0.2212
@<TRIPOS>BOND
     1   107   108    1
     2   109   108    1
     3   109   110    2
     4   108   111    1
     5   111   112    1
     6   112   113   ar
     7   112   114   ar
     8   113   115   ar
     9   114   116   ar
    10   173   174    2
    11   173   172    1
    12   171   172    1
    13   115   117   ar
    14   116   117   ar
    15   172   175    1
    16   100    99    2
    17   117   118    1
    18   119   120    1
    19   175   176    1
    20    99    98    1
    21   176   177   ar
    22   176   178   ar
    23   103   105   ar
    24   103   102   ar
    25   179   180    1
    26   124   123    1
    27   124   125    1
    28    98   101    1
    29    98    97    1
    30   120   123    1
    31   120   121    1
    32   105   106   ar
    33   101   102    1
    34   102   104   ar
    35   126   125   ar
    36   121   122    2
    37   125   127   ar
    38   185   187   ar
    39   185   184   ar
    40   187   188   ar
    41   180   181    1
    42   180   183    1
    43   106   104   ar
    44   181   182    2
    45   184   183    1
    46   184   186   ar
    47   188   186   ar
    48    40    42   ar
    49    40    39   ar
    50    42    44   ar
    51    91    90    2
    52    38    39    1
    53    38    35    1
    54    39    41   ar
    55    44    43   ar
    56    36    35    1
    57    36    37    2
    58    87    86   ar
    59    87    85   ar
    60    81    80    2
    61    35    34    1
    62    86    84   ar
    63    95    94   ar
    64    90    89    1
    65    41    43   ar
    66    85    83   ar
    67    89    88    1
    68    89    92    1
    69    12    11    1
    70    80    88   am
    71    80    79    1
    72    84    83   ar
    73    94    96   ar
    74    94    93    1
    75    83    82    1
    76    28    26   am
    77    34    31   am
    78    32    31    2
    79   166   167    1
    80   166   165    1
    81    92    93    1
    82   169   168    1
    83   170   168    1
    84   168   167    2
    85    79    82    1
    86    79    78    1
    87    31    30    1
    88    11     9   ar
    89    11    10   ar
    90    26    27    2
    91    26    25    1
    92     9     7   ar
    93   165   164    1
    94    25    22    1
    95    10     8   ar
    96    30    29    1
    97    30    33    1
    98    29    23   am
    99     7     6   ar
   100   164   161    1
   101     8     6   ar
   102    23    22    1
   103    23    24    2
   104    74    73    2
   105    22    21    1
   106     6     5    1
   107   133   135    1
   108   133   132    1
   109   161   162    1
   110   161   160    1
   111   134   132    1
   112   155   154    2
   113    16    15    2
   114    21    15   am
   115    73    72    1
   116   159   157    1
   117   132   129    1
   118   157   158    1
   119   157   156    1
   120   162   163    2
   121    15    14    1
   122     5     2    1
   123   160   154   am
   124   154   153    1
   125    72    71    1
   126    72    75    1
   127    13    14    1
   128    13     3   am
   129    76    75    1
   130   156   153    1
   131     2     3    1
   132     2     1    1
   133    14    17    1
   134     3     4    2
   135    17    18    1
   136   153   152    1
   137   129   128    1
   138   129   130    1
   139    70    68    1
   140    75    77    1
   141    60    62   ar
   142    60    58   ar
   143    62    61   ar
   144   131   130    2
   145   130   136   am
   146    67    68    1
   147    67    64    1
   148    20    18   am
   149    18    19    2
   150    68    69    1
   151   136   137    1
   152    58    57   ar
   153   151   150    1
   154    61    59   ar
   155   137   138    1
   156   148   150   ar
   157   148   146   ar
   158   150   149   ar
   159    51    49    1
   160    66    65    2
   161    65    64    1
   162    64    63    1
   163    57    59   ar
   164    57    56    1
   165   146   145   ar
   166   149   147   ar
   167    50    49    1
   168    49    46    1
   169   138   139    2
   170   145   147   ar
   171   145   144    1
   172    56    53    1
   173   144   141    1
   174    48    47    2
   175    46    47    1
   176    46    45    1
   177    47    52   am
   178    53    52    1
   179    53    54    1
   180   141   140    1
   181   141   142    1
   182    54    55    2
   183   142   143    2
