@<TRIPOS>MOLECULE
tmp/1tmxA00.pdb
 151 144 0 0 0
SMALL
GASTEIGER

@<TRIPOS>ATOM
      1  N         19.9450   11.7300   20.0250 N.3    38  LEU38      -0.1245
      2  CA        21.1750   12.4340   20.2960 C.3    38  LEU38       0.1561
      3  C         20.9290   13.4690   21.3930 C.2    38  LEU38       0.2260
      4  O         21.7350   13.6000   22.3190 O.2    38  LEU38      -0.2867
      5  CB        21.6880   13.1110   19.0170 C.3    38  LEU38       0.0270
      6  CG        22.9970   13.9210   19.0600 C.3    38  LEU38       0.0019
      7  CD1       23.5370   13.9960   17.6260 C.3    38  LEU38       0.0001
      8  CD2       22.8180   15.3020   19.5460 C.3    38  LEU38       0.0001
      9  N         22.7430   13.4370   24.9960 N.3    42  LEU42      -0.1245
     10  CA        23.6690   14.5300   25.2640 C.3    42  LEU42       0.1561
     11  C         23.2230   15.2390   26.5310 C.2    42  LEU42       0.2260
     12  O         24.0500   15.5450   27.3950 O.2    42  LEU42      -0.2867
     13  CB        23.6650   15.4930   24.0450 C.3    42  LEU42       0.0270
     14  CG        24.3710   16.8290   24.3070 C.3    42  LEU42       0.0019
     15  CD1       25.8790   16.5790   24.5710 C.3    42  LEU42       0.0001
     16  CD2       24.2180   17.7630   23.1050 C.3    42  LEU42       0.0001
     17  N         23.9280   13.0640   29.6170 N.3    45  PHE45      -0.1227
     18  CA        25.3280   13.1730   29.9890 C.3    45  PHE45       0.1736
     19  C         25.5310   14.4680   30.7670 C.2    45  PHE45       0.2595
     20  O         26.1320   14.4660   31.8570 O.2    45  PHE45      -0.2718
     21  CB        26.2070   13.1910   28.7350 C.3    45  PHE45       0.0547
     22  CG        27.6060   13.7550   28.9860 C.ar   45  PHE45      -0.0202
     23  CD1       28.5590   13.0090   29.6820 C.ar   45  PHE45      -0.0042
     24  CD2       27.9610   14.9810   28.4760 C.ar   45  PHE45      -0.0042
     25  CE1       29.8610   13.5020   29.8890 C.ar   45  PHE45      -0.0003
     26  CE2       29.2720   15.5070   28.7150 C.ar   45  PHE45      -0.0003
     27  CZ        30.2020   14.7370   29.4040 C.ar   45  PHE45      -0.0000
     28  N         25.0930   15.6020   30.1920 N.am   46  LEU46      -0.1980
     29  CA        25.3480   16.8910   30.8310 C.3    46  LEU46       0.1596
     30  C         24.7740   16.9470   32.2620 C.2    46  LEU46       0.2287
     31  O         25.4290   17.4680   33.2030 O.2    46  LEU46      -0.2864
     32  CB        24.7640   18.0670   30.0190 C.3    46  LEU46       0.0297
     33  CG        25.3910   18.2570   28.6630 C.3    46  LEU46       0.0022
     34  CD1       24.4840   19.1930   27.8140 C.3    46  LEU46       0.0001
     35  CD2       26.8210   18.7730   28.8000 C.3    46  LEU46       0.0001
     36  N         28.0610   19.2860   34.2680 N.3    51  LEU51      -0.1245
     37  CA        29.2040   19.9410   33.6170 C.3    51  LEU51       0.1561
     38  C         29.3490   21.3930   34.0130 C.2    51  LEU51       0.2260
     39  O         28.3680   22.1540   33.9720 O.2    51  LEU51      -0.2867
     40  CB        29.0500   19.8360   32.1030 C.3    51  LEU51       0.0270
     41  CG        30.2900   20.0270   31.2440 C.3    51  LEU51       0.0019
     42  CD1       31.2580   18.8390   31.2450 C.3    51  LEU51       0.0001
     43  CD2       29.8120   20.3580   29.8420 C.3    51  LEU51       0.0001
     44  N         34.4950   23.3310   32.0880 N.3    55  GLU55      -0.1231
     45  CA        34.5510   22.0110   31.4330 C.3    55  GLU55       0.1699
     46  C         33.9530   22.0530   30.0120 C.2    55  GLU55       0.2592
     47  O         34.4650   21.4170   29.0770 O.2    55  GLU55      -0.2718
     48  CB        33.8150   20.9480   32.2460 C.3    55  GLU55       0.0402
     49  CG        34.6790   20.3670   33.3700 C.3    55  GLU55       0.1161
     50  CD        33.8760   19.7860   34.5170 C.2    55  GLU55       0.3649
     51  OE1       32.6110   19.7890   34.4960 O.co2  55  GLU55      -0.2457
     52  OE2       34.5160   19.3070   35.4830 O.co2  55  GLU55      -0.2457
     53  N         32.8420   22.7710   29.8920 N.am   56  TRP56      -0.1976
     54  CA        32.2520   23.0310   28.5960 C.3    56  TRP56       0.1640
     55  C         33.2650   23.7200   27.6710 C.2    56  TRP56       0.2290
     56  O         33.4270   23.3090   26.5340 O.2    56  TRP56      -0.2864
     57  CB        30.9620   23.8450   28.8010 C.3    56  TRP56       0.0576
     58  CG        30.2870   24.2130   27.5060 C.ar   56  TRP56       0.0006
     59  CD1       29.3490   23.4660   26.8350 C.ar   56  TRP56       0.0946
     60  CD2       30.5060   25.3870   26.7130 C.ar   56  TRP56       0.0152
     61  NE1       28.9530   24.1180   25.6920 N.ar   56  TRP56      -0.2442
     62  CE2       29.6410   25.2970   25.5800 C.ar   56  TRP56       0.0810
     63  CE3       31.3120   26.5310   26.8500 C.ar   56  TRP56       0.0012
     64  CZ2       29.5750   26.2790   24.6080 C.ar   56  TRP56       0.0191
     65  CZ3       31.2580   27.5210   25.8610 C.ar   56  TRP56       0.0001
     66  CH2       30.3940   27.3920   24.7470 C.ar   56  TRP56       0.0015
     67  N         36.5310   23.5570   27.8760 N.3    58  THR58      -0.1203
     68  CA        37.4960   22.5270   27.5500 C.3    58  THR58       0.1994
     69  C         36.9910   21.6470   26.3920 C.2    58  THR58       0.2618
     70  O         37.7060   21.4310   25.4050 O.2    58  THR58      -0.2717
     71  CB        37.7720   21.6850   28.7950 C.3    58  THR58       0.1784
     72  OG1       38.5170   22.4860   29.7510 O.3    58  THR58      -0.2211
     73  CG2       38.6450   20.5000   28.4460 C.3    58  THR58       0.0376
     74  N         35.7510   21.1830   26.4790 N.am   59  GLY59      -0.1942
     75  CA        35.2360   20.3090   25.4120 C.3    59  GLY59       0.2014
     76  C         35.1200   21.0360   24.0840 C.2    59  GLY59       0.2638
     77  O         35.4160   20.4810   23.0210 O.2    59  GLY59      -0.2714
     78  N         34.6850   22.2820   24.1420 N.am   60  ILE60      -0.1977
     79  CA        34.5530   23.0960   22.9180 C.3    60  ILE60       0.1596
     80  C         35.9380   23.2560   22.2960 C.2    60  ILE60       0.2287
     81  O         36.1020   23.0510   21.1120 O.2    60  ILE60      -0.2864
     82  CB        33.9450   24.4750   23.2140 C.3    60  ILE60       0.0276
     83  CG1       32.4690   24.3480   23.6460 C.3    60  ILE60       0.0022
     84  CG2       34.0960   25.4290   22.0100 C.3    60  ILE60       0.0022
     85  CD1       31.5010   23.9020   22.5280 C.3    60  ILE60       0.0001
     86  N         38.5850   21.3590   22.7030 N.3    62  PHE62      -0.1227
     87  CA        38.9660   20.0390   22.2150 C.3    62  PHE62       0.1736
     88  C         38.4300   19.7770   20.8230 C.2    62  PHE62       0.2595
     89  O         39.1920   19.4670   19.8950 O.2    62  PHE62      -0.2718
     90  CB        38.4680   18.9880   23.1740 C.3    62  PHE62       0.0547
     91  CG        38.9940   17.6190   22.8970 C.ar   62  PHE62      -0.0202
     92  CD1       38.4430   16.8320   21.8940 C.ar   62  PHE62      -0.0042
     93  CD2       40.0360   17.1030   23.6740 C.ar   62  PHE62      -0.0042
     94  CE1       38.9330   15.5430   21.6550 C.ar   62  PHE62      -0.0003
     95  CE2       40.5020   15.8220   23.4610 C.ar   62  PHE62      -0.0003
     96  CZ        39.9600   15.0390   22.4620 C.ar   62  PHE62      -0.0000
     97  N         37.1220   19.9630   20.6430 N.am   63  LEU63      -0.1980
     98  CA        36.5350   19.7880   19.3260 C.3    63  LEU63       0.1596
     99  C         37.1400   20.7400   18.2860 C.2    63  LEU63       0.2287
    100  O         37.4140   20.3290   17.1530 O.2    63  LEU63      -0.2864
    101  CB        35.0170   20.0280   19.3930 C.3    63  LEU63       0.0297
    102  CG        34.3120   18.9490   20.1970 C.3    63  LEU63       0.0022
    103  CD1       32.8950   19.4120   20.5610 C.3    63  LEU63       0.0001
    104  CD2       34.3040   17.6260   19.3790 C.3    63  LEU63       0.0001
    105  N         38.9260   10.1340   17.4250 N.3    80  LEU80      -0.1245
    106  CA        38.2210   10.2850   18.6740 C.3    80  LEU80       0.1561
    107  C         37.1830    9.1820   18.7380 C.2    80  LEU80       0.2260
    108  O         37.0720    8.4580   19.7580 O.2    80  LEU80      -0.2867
    109  CB        37.5650   11.6800   18.7590 C.3    80  LEU80       0.0270
    110  CG        36.7590   11.9690   20.0250 C.3    80  LEU80       0.0019
    111  CD1       37.5690   11.8160   21.3050 C.3    80  LEU80       0.0001
    112  CD2       36.1760   13.4000   19.9150 C.3    80  LEU80       0.0001
    113  N         37.2620    6.0400   21.5880 N.3    84  LEU84      -0.1245
    114  CA        36.0890    5.9410   22.4500 C.3    84  LEU84       0.1561
    115  C         35.2830    4.6820   22.1690 C.2    84  LEU84       0.2260
    116  O         34.2620    4.4480   22.7890 O.2    84  LEU84      -0.2867
    117  CB        35.1940    7.1660   22.3270 C.3    84  LEU84       0.0270
    118  CG        35.7810    8.4200   22.9690 C.3    84  LEU84       0.0019
    119  CD1       34.8280    9.5980   22.7540 C.3    84  LEU84       0.0001
    120  CD2       36.0450    8.2070   24.4780 C.3    84  LEU84       0.0001
    121  N         46.2860   14.1070   23.6520 N.3   206  ARG206     -0.1231
    122  CA        46.2020   14.8020   24.9430 C.3   206  ARG206      0.1694
    123  C         45.2450   14.1450   25.8710 C.2   206  ARG206      0.2591
    124  O         45.5320   13.9900   27.0550 O.2   206  ARG206     -0.2718
    125  CB        45.8640   16.2960   24.7910 C.3   206  ARG206      0.0321
    126  CG        47.0650   17.1340   24.5040 C.3   206  ARG206      0.0489
    127  CD        46.6490   18.5350   24.1540 C.3   206  ARG206      0.2205
    128  NE        45.9240   18.5740   22.8940 N.pl3 206  ARG206     -0.0865
    129  CZ        45.5610   19.6960   22.2820 C.cat 206  ARG206      0.5346
    130  NH1       45.8480   20.8690   22.8280 N.pl3 206  ARG206      0.1354
    131  NH2       44.9100   19.6450   21.1320 N.pl3 206  ARG206      0.1354
    132  N         44.0940   13.7110   25.3320 N.am  207  MET207     -0.1979
    133  CA        43.1200   13.0000   26.1330 C.3   207  MET207      0.1605
    134  C         43.6860   11.6470   26.5970 C.2   207  MET207      0.2287
    135  O         43.5520   11.2680   27.7600 O.2   207  MET207     -0.2864
    136  CB        41.7870   12.8240   25.3510 C.3   207  MET207      0.0413
    137  CG        40.7230   12.0530   26.1530 C.3   207  MET207      0.0598
    138  SD        40.8950   10.2660   26.2220 S.3   207  MET207     -0.1393
    139  CE        40.3370    9.7430   24.4770 C.3   207  MET207      0.0692
    140  N         46.2310   12.4020   29.3730 N.3   210  ALA210     -0.1231
    141  CA        45.5550   12.8110   30.6250 C.3   210  ALA210      0.1694
    142  C         44.8390   11.6690   31.3470 C.2   210  ALA210      0.2592
    143  O         44.7560   11.6690   32.5970 O.2   210  ALA210     -0.2718
    144  CB        44.6210   13.9850   30.3460 C.3   210  ALA210      0.0304
    145  N         44.4090   10.6350   30.6010 N.am  211  THR211     -0.1953
    146  CA        43.7230    9.5010   31.2020 C.3   211  THR211      0.1897
    147  C         44.6220    8.2900   31.4460 C.2   211  THR211      0.2313
    148  O         44.1270    7.2310   31.8390 O.2   211  THR211     -0.2863
    149  CB        42.4670    9.0430   30.3760 C.3   211  THR211      0.1794
    150  OG1       42.9030    8.6740   29.0470 O.3   211  THR211     -0.2208
    151  CG2       41.4700   10.2010   30.2120 C.3   211  THR211      0.0378
@<TRIPOS>BOND
     1   100    99    2
     2   105   106    1
     3     7     6    1
     4    99    98    1
     5   106   107    1
     6   106   109    1
     7   107   108    2
     8   109   110    1
     9     5     6    1
    10     5     2    1
    11     6     8    1
    12    98   101    1
    13    98    97    1
    14   104   102    1
    15   101   102    1
    16    89    88    2
    17   112   110    1
    18   110   111    1
    19     1     2    1
    20   102   103    1
    21     2     3    1
    22    97    88   am
    23    88    87    1
    24    81    80    2
    25   131   129    1
    26     3     4    2
    27   113   114    1
    28    94    92   ar
    29    94    96   ar
    30    92    91   ar
    31    84    82    1
    32   115   114    1
    33   115   116    2
    34    87    86    1
    35    87    90    1
    36   129   130    1
    37   129   128    2
    38    80    79    1
    39   117   114    1
    40   117   118    1
    41    96    95   ar
    42    85    83    1
    43   119   118    1
    44   128   127    1
    45    91    90    1
    46    91    93   ar
    47    79    82    1
    48    79    78    1
    49   118   120    1
    50    77    76    2
    51    16    14    1
    52    82    83    1
    53    95    93   ar
    54   121   122    1
    55    13    14    1
    56    13    10    1
    57    76    78   am
    58    76    75    1
    59   127   126    1
    60    14    15    1
    61   139   138    1
    62   126   125    1
    63    64    66   ar
    64    64    62   ar
    65    66    65   ar
    66   125   122    1
    67   122   123    1
    68     9    10    1
    69    10    11    1
    70   132   123   am
    71   132   133    1
    72   136   133    1
    73   136   137    1
    74    70    69    2
    75    75    74    1
    76    62    61   ar
    77    62    60   ar
    78    61    59   ar
    79    65    63   ar
    80   123   124    2
    81   133   134    1
    82   137   138    1
    83    69    74   am
    84    69    68    1
    85    11    12    2
    86    56    55    2
    87   134   135    2
    88    60    63   ar
    89    60    58   ar
    90    59    58   ar
    91    58    57    1
    92    68    67    1
    93    68    71    1
    94    55    54    1
    95    34    33    1
    96    73    71    1
    97    24    26   ar
    98    24    22   ar
    99    54    57    1
   100    54    53    1
   101    33    35    1
   102    33    32    1
   103    26    27   ar
   104    21    22    1
   105    21    18    1
   106    71    72    1
   107    22    23   ar
   108   150   149    1
   109    47    46    2
   110   140   141    1
   111    27    25   ar
   112    17    18    1
   113    23    25   ar
   114    43    41    1
   115    53    46   am
   116    18    19    1
   117    46    45    1
   118    32    29    1
   119    28    19   am
   120    28    29    1
   121   151   149    1
   122   144   141    1
   123   149   146    1
   124   145   146    1
   125   145   142   am
   126   141   142    1
   127    19    20    2
   128    29    30    1
   129   146   147    1
   130    41    42    1
   131    41    40    1
   132   142   143    2
   133    45    44    1
   134    45    48    1
   135   147   148    2
   136    40    37    1
   137    48    49    1
   138    30    31    2
   139    49    50    1
   140    37    38    1
   141    37    36    1
   142    39    38    2
   143    51    50   ar
   144    50    52   ar
