@<TRIPOS>MOLECULE
tmp/1tmxA01.pdb
 104 95 0 0 0
SMALL
GASTEIGER

@<TRIPOS>ATOM
      1  N         12.7250   13.8810    7.3770 N.3    28  ASP28      -0.1239
      2  CA        13.1410   12.4800    7.2620 C.3    28  ASP28       0.1674
      3  C         12.9740   11.8640    8.6360 C.2    28  ASP28       0.2266
      4  O         13.6050   12.3660    9.6070 O.2    28  ASP28      -0.2867
      5  CB        14.6230   12.3720    6.8560 C.3    28  ASP28       0.1410
      6  CG        15.0600   10.9510    6.7270 C.2    28  ASP28       0.3668
      7  OD1       15.0740   10.2320    7.7450 O.co2  28  ASP28      -0.2456
      8  OD2       15.3160   10.4280    5.6200 O.co2  28  ASP28      -0.2456
      9  N         13.8870    9.0740   10.0550 N.3    30  ARG30      -0.1231
     10  CA        15.1110    8.4930   10.6370 C.3    30  ARG30       0.1694
     11  C         16.0270    9.6140   11.1940 C.2    30  ARG30       0.2591
     12  O         16.5180    9.4870   12.3270 O.2    30  ARG30      -0.2718
     13  CB        15.8630    7.6440    9.6020 C.3    30  ARG30       0.0321
     14  CG        17.1900    7.1070   10.0840 C.3    30  ARG30       0.0489
     15  CD        17.1000    6.3340   11.3720 C.3    30  ARG30       0.2205
     16  NE        18.4240    5.8000   11.6970 N.pl3  30  ARG30      -0.0865
     17  CZ        18.7000    5.0340   12.7580 C.cat  30  ARG30       0.5346
     18  NH1       17.7440    4.6960   13.6450 N.pl3  30  ARG30       0.1354
     19  NH2       19.9470    4.5720   12.8860 N.pl3  30  ARG30       0.1354
     20  N         16.2210   10.7030   10.4140 N.am   31  LEU31      -0.1980
     21  CA        16.9790   11.8610   10.9250 C.3    31  LEU31       0.1596
     22  C         16.3550   12.3620   12.2080 C.2    31  LEU31       0.2287
     23  O         17.0650   12.6670   13.1580 O.2    31  LEU31      -0.2864
     24  CB        17.0460   13.0100    9.8910 C.3    31  LEU31       0.0297
     25  CG        17.8880   14.2290   10.3870 C.3    31  LEU31       0.0022
     26  CD1       19.3000   13.8050   10.7840 C.3    31  LEU31       0.0001
     27  CD2       17.9260   15.2290    9.2490 C.3    31  LEU31       0.0001
     28  N         17.1020   10.0130   15.0570 N.3    34  VAL34      -0.1231
     29  CA        18.5180   10.1370   15.4270 C.3    34  VAL34       0.1692
     30  C         18.7920   11.4170   16.2220 C.2    34  VAL34       0.2591
     31  O         19.4400   11.3770   17.2840 O.2    34  VAL34      -0.2718
     32  CB        19.4470   10.0050   14.1920 C.3    34  VAL34       0.0266
     33  CG1       20.9290   10.3020   14.5570 C.3    34  VAL34       0.0020
     34  CG2       19.3400    8.5640   13.6810 C.3    34  VAL34       0.0020
     35  N         18.2600   12.5440   15.7490 N.am   35  MET35      -0.1979
     36  CA        18.5150   13.8120   16.4290 C.3    35  MET35       0.1605
     37  C         17.8790   13.8950   17.8380 C.2    35  MET35       0.2287
     38  O         18.4400   14.5110   18.7520 O.2    35  MET35      -0.2864
     39  CB        18.0260   14.9770   15.5250 C.3    35  MET35       0.0413
     40  CG        18.8520   15.1930   14.2600 C.3    35  MET35       0.0598
     41  SD        20.6760   15.2570   14.4540 S.3    35  MET35      -0.1393
     42  CE        20.7520   16.7850   15.5780 C.3    35  MET35       0.0692
     43  N         19.9450   11.7300   20.0250 N.3    38  LEU38      -0.1245
     44  CA        21.1750   12.4340   20.2960 C.3    38  LEU38       0.1561
     45  C         20.9290   13.4690   21.3930 C.2    38  LEU38       0.2260
     46  O         21.7350   13.6000   22.3190 O.2    38  LEU38      -0.2867
     47  CB        21.6880   13.1110   19.0170 C.3    38  LEU38       0.0270
     48  CG        22.9970   13.9210   19.0600 C.3    38  LEU38       0.0019
     49  CD1       23.5370   13.9960   17.6260 C.3    38  LEU38       0.0001
     50  CD2       22.8180   15.3020   19.5460 C.3    38  LEU38       0.0001
     51  N         22.7430   13.4370   24.9960 N.3    42  LEU42      -0.1245
     52  CA        23.6690   14.5300   25.2640 C.3    42  LEU42       0.1561
     53  C         23.2230   15.2390   26.5310 C.2    42  LEU42       0.2260
     54  O         24.0500   15.5450   27.3950 O.2    42  LEU42      -0.2867
     55  CB        23.6650   15.4930   24.0450 C.3    42  LEU42       0.0270
     56  CG        24.3710   16.8290   24.3070 C.3    42  LEU42       0.0019
     57  CD1       25.8790   16.5790   24.5710 C.3    42  LEU42       0.0001
     58  CD2       24.2180   17.7630   23.1050 C.3    42  LEU42       0.0001
     59  N         37.1220   19.9630   20.6430 N.3    63  LEU63      -0.1245
     60  CA        36.5350   19.7880   19.3260 C.3    63  LEU63       0.1561
     61  C         37.1400   20.7400   18.2860 C.2    63  LEU63       0.2260
     62  O         37.4140   20.3290   17.1530 O.2    63  LEU63      -0.2867
     63  CB        35.0170   20.0280   19.3930 C.3    63  LEU63       0.0270
     64  CG        34.3120   18.9490   20.1970 C.3    63  LEU63       0.0019
     65  CD1       32.8950   19.4120   20.5610 C.3    63  LEU63       0.0001
     66  CD2       34.3040   17.6260   19.3790 C.3    63  LEU63       0.0001
     67  N         38.6420   13.5710   14.2410 N.3    77  PHE77      -0.1241
     68  CA        37.3000   13.2140   14.6860 C.3    77  PHE77       0.1605
     69  C         37.1320   11.7160   14.5770 C.2    77  PHE77       0.2264
     70  O         36.5210   11.0960   15.4690 O.2    77  PHE77      -0.2867
     71  CB        36.2120   13.9720   13.8840 C.3    77  PHE77       0.0534
     72  CG        36.1900   15.4380   14.1470 C.ar   77  PHE77      -0.0203
     73  CD1       35.8020   15.9270   15.4070 C.ar   77  PHE77      -0.0042
     74  CD2       36.5800   16.3450   13.1480 C.ar   77  PHE77      -0.0042
     75  CE1       35.7850   17.2910   15.6700 C.ar   77  PHE77      -0.0003
     76  CE2       36.5820   17.7200   13.3870 C.ar   77  PHE77      -0.0003
     77  CZ        36.2000   18.2140   14.6660 C.ar   77  PHE77      -0.0000
     78  N         38.9260   10.1340   17.4250 N.3    80  LEU80      -0.1231
     79  CA        38.2210   10.2850   18.6740 C.3    80  LEU80       0.1693
     80  C         37.1830    9.1820   18.7380 C.2    80  LEU80       0.2592
     81  O         37.0720    8.4580   19.7580 O.2    80  LEU80      -0.2718
     82  CB        37.5650   11.6800   18.7590 C.3    80  LEU80       0.0284
     83  CG        36.7590   11.9690   20.0250 C.3    80  LEU80       0.0019
     84  CD1       37.5690   11.8160   21.3050 C.3    80  LEU80       0.0001
     85  CD2       36.1760   13.4000   19.9150 C.3    80  LEU80       0.0001
     86  N         36.4500    9.0140   17.6350 N.am   81  SER81      -0.1952
     87  CA        35.5270    7.8700   17.5120 C.3    81  SER81       0.1924
     88  C         36.2150    6.5170   17.7560 C.2    81  SER81       0.2314
     89  O         35.7270    5.6650   18.4960 O.2    81  SER81      -0.2863
     90  CB        34.8070    7.8870   16.1600 C.3    81  SER81       0.2116
     91  OG        34.0540    6.6750   15.9240 O.3    81  SER81      -0.2180
     92  N         37.2620    6.0400   21.5880 N.3    84  LEU84      -0.1245
     93  CA        36.0890    5.9410   22.4500 C.3    84  LEU84       0.1561
     94  C         35.2830    4.6820   22.1690 C.2    84  LEU84       0.2260
     95  O         34.2620    4.4480   22.7890 O.2    84  LEU84      -0.2867
     96  CB        35.1940    7.1660   22.3270 C.3    84  LEU84       0.0270
     97  CG        35.7810    8.4200   22.9690 C.3    84  LEU84       0.0019
     98  CD1       34.8280    9.5980   22.7540 C.3    84  LEU84       0.0001
     99  CD2       36.0450    8.2070   24.4780 C.3    84  LEU84       0.0001
    100  N         33.6030    3.9980   19.6090 N.3    86  ALA86      -0.1245
    101  CA        32.3910    4.2620   18.7590 C.3    86  ALA86       0.1562
    102  C         32.5700    3.6440   17.3700 C.2    86  ALA86       0.2260
    103  O         31.6050    3.1600   16.7700 O.2    86  ALA86      -0.2867
    104  CB        32.0990    5.7290   18.6160 C.3    86  ALA86       0.0290
@<TRIPOS>BOND
     1     8     6   ar
     2     6     5    1
     3     6     7   ar
     4     5     2    1
     5     2     1    1
     6     2     3    1
     7     3     4    2
     8    27    25    1
     9    13    14    1
    10    13    10    1
    11    24    25    1
    12    24    21    1
    13     9    10    1
    14    14    15    1
    15    25    26    1
    16    20    21    1
    17    20    11   am
    18    10    11    1
    19    21    22    1
    20    11    12    2
    21    15    16    1
    22    16    17    2
    23    22    23    2
    24    17    19    1
    25    17    18    1
    26    74    76   ar
    27    74    72   ar
    28    76    77   ar
    29    34    32    1
    30    71    72    1
    31    71    68    1
    32    72    73   ar
    33    32    33    1
    34    32    29    1
    35    67    68    1
    36    40    41    1
    37    40    39    1
    38    41    42    1
    39    69    68    1
    40    69    70    2
    41    77    75   ar
    42    28    29    1
    43    73    75   ar
    44    29    30    1
    45    39    36    1
    46    35    30   am
    47    35    36    1
    48    91    90    1
    49    90    87    1
    50    30    31    2
    51    36    37    1
    52   103   102    2
    53    62    61    2
    54   102   101    1
    55    78    79    1
    56    87    86    1
    57    87    88    1
    58    49    48    1
    59    86    80   am
    60    88    89    2
    61    37    38    2
    62    61    60    1
    63   104   101    1
    64    79    80    1
    65    79    82    1
    66    80    81    2
    67   101   100    1
    68    82    83    1
    69    47    48    1
    70    47    44    1
    71    48    50    1
    72    60    63    1
    73    60    59    1
    74    66    64    1
    75    63    64    1
    76    85    83    1
    77    43    44    1
    78    83    84    1
    79    64    65    1
    80    44    45    1
    81    45    46    2
    82    92    93    1
    83    94    93    1
    84    94    95    2
    85    96    93    1
    86    96    97    1
    87    98    97    1
    88    97    99    1
    89    58    56    1
    90    55    56    1
    91    55    52    1
    92    56    57    1
    93    51    52    1
    94    52    53    1
    95    53    54    2
