@<TRIPOS>MOLECULE
tmp/1tmxA02.pdb
 147 146 0 0 0
SMALL
GASTEIGER

@<TRIPOS>ATOM
      1  N         39.6220    9.6150   14.7930 N.3    79  LEU79      -0.1245
      2  CA        40.4470    9.0150   15.8590 C.3    79  LEU79       0.1561
      3  C         39.7270    9.0810   17.2170 C.2    79  LEU79       0.2260
      4  O         39.9060    8.1980   18.0540 O.2    79  LEU79      -0.2867
      5  CB        41.7880    9.7490   16.0280 C.3    79  LEU79       0.0270
      6  CG        42.7570    9.5670   14.8870 C.3    79  LEU79       0.0019
      7  CD1       44.0150   10.4870   15.0680 C.3    79  LEU79       0.0001
      8  CD2       43.0720    8.1320   14.6420 C.3    79  LEU79       0.0001
      9  N         37.4250    6.3740   17.2340 N.3    82  ASP82      -0.1239
     10  CA        38.1900    5.1520   17.4700 C.3    82  ASP82       0.1674
     11  C         38.5110    4.8510   18.9410 C.2    82  ASP82       0.2266
     12  O         38.2640    3.7240   19.4580 O.2    82  ASP82      -0.2867
     13  CB        39.5190    5.2660   16.6910 C.3    82  ASP82       0.1410
     14  CG        39.3570    5.2320   15.1770 C.2    82  ASP82       0.3668
     15  OD1       38.3280    4.7560   14.6020 O.co2  82  ASP82      -0.2456
     16  OD2       40.3020    5.6660   14.4570 O.co2  82  ASP82      -0.2456
     17  N         38.0150   -2.2250   12.6360 N.3   106  VAL106     -0.1231
     18  CA        38.2930   -0.8700   12.1650 C.3   106  VAL106      0.1692
     19  C         39.1570   -0.7530   10.8990 C.2   106  VAL106      0.2592
     20  O         39.9960   -1.6030   10.6100 O.2   106  VAL106     -0.2718
     21  CB        38.8470    0.0080   13.3300 C.3   106  VAL106      0.0266
     22  CG1       37.9850   -0.1640   14.5790 C.3   106  VAL106      0.0020
     23  CG2       40.2360   -0.3820   13.6410 C.3   106  VAL106      0.0020
     24  N         38.8740    0.2900   10.1280 N.am  107  PHE107     -0.1962
     25  CA        39.5120    0.6190    8.8700 C.3   107  PHE107      0.1771
     26  C         40.8290    1.3810    9.0850 C.2   107  PHE107      0.2620
     27  O         41.8710    1.0300    8.5300 O.2   107  PHE107     -0.2715
     28  CB        38.5000    1.4920    8.0900 C.3   107  PHE107      0.0574
     29  CG        38.8270    1.7300    6.6360 C.ar  107  PHE107     -0.0200
     30  CD1       39.3850    0.7230    5.8370 C.ar  107  PHE107     -0.0042
     31  CD2       38.4810    2.9520    6.0330 C.ar  107  PHE107     -0.0042
     32  CE1       39.6820    0.9400    4.5100 C.ar  107  PHE107     -0.0003
     33  CE2       38.7830    3.1910    4.6630 C.ar  107  PHE107     -0.0003
     34  CZ        39.3590    2.1680    3.9050 C.ar  107  PHE107     -0.0000
     35  N         40.7540    2.4260    9.8860 N.am  108  GLY108     -0.1940
     36  CA        41.8520    3.3400   10.0620 C.3   108  GLY108      0.1998
     37  C         41.9690    4.2650    8.8730 C.2   108  GLY108      0.2481
     38  O         41.1590    4.1960    7.9050 O.2   108  GLY108     -0.2729
     39  N         42.9820    5.1300    8.9370 N.am  109  PRO109     -0.2715
     40  CA        43.2060    6.2030    7.9580 C.3   109  PRO109      0.1536
     41  C         44.2300    5.9140    6.8920 C.2   109  PRO109      0.2598
     42  O         44.4380    6.8220    6.0700 O.2   109  PRO109     -0.2715
     43  CB        43.7520    7.3500    8.8390 C.3   109  PRO109      0.0310
     44  CG        44.5570    6.6070    9.9220 C.3   109  PRO109      0.0237
     45  CD        43.8790    5.2380   10.1030 C.3   109  PRO109      0.0939
     46  N         44.8470    4.7250    6.8830 N.am  110  PHE110     -0.1974
     47  CA        46.0160    4.5180    6.0320 C.3   110  PHE110      0.1639
     48  C         45.7590    3.6380    4.8030 C.2   110  PHE110      0.2290
     49  O         46.6960    3.1630    4.1580 O.2   110  PHE110     -0.2864
     50  CB        47.1960    3.9950    6.8700 C.3   110  PHE110      0.0560
     51  CG        47.6040    4.9450    7.9780 C.ar  110  PHE110     -0.0200
     52  CD1       48.0560    6.2400    7.6740 C.ar  110  PHE110     -0.0042
     53  CD2       47.5600    4.5590    9.2980 C.ar  110  PHE110     -0.0042
     54  CE1       48.4530    7.1120    8.7000 C.ar  110  PHE110     -0.0003
     55  CE2       47.9370    5.4540   10.3410 C.ar  110  PHE110     -0.0003
     56  CZ        48.3800    6.7090   10.0280 C.ar  110  PHE110     -0.0000
     57  N         47.3210   -3.9350    3.6130 N.3   155  TRP155     -0.1241
     58  CA        48.2670   -2.8600    3.9560 C.3   155  TRP155      0.1605
     59  C         48.7010   -2.9680    5.4100 C.2   155  TRP155      0.2264
     60  O         48.0050   -3.5590    6.2210 O.2   155  TRP155     -0.2867
     61  CB        47.7100   -1.4780    3.5880 C.3   155  TRP155      0.0550
     62  CG        46.5610   -1.0040    4.3790 C.ar  155  TRP155      0.0003
     63  CD1       46.6070   -0.0550    5.3460 C.ar  155  TRP155      0.0946
     64  CD2       45.1870   -1.3970    4.2600 C.ar  155  TRP155      0.0152
     65  NE1       45.3640    0.1580    5.8740 N.ar  155  TRP155     -0.2442
     66  CE2       44.4610   -0.6440    5.2140 C.ar  155  TRP155      0.0810
     67  CE3       44.4810   -2.3030    3.4310 C.ar  155  TRP155      0.0012
     68  CZ2       43.0810   -0.7650    5.3840 C.ar  155  TRP155      0.0191
     69  CZ3       43.0780   -2.4250    3.6270 C.ar  155  TRP155      0.0001
     70  CH2       42.4090   -1.6730    4.5720 C.ar  155  TRP155      0.0015
     71  N         53.0580    3.7430    7.9090 N.3   163  TYR163     -0.1241
     72  CA        52.4860    3.3500    6.6120 C.3   163  TYR163      0.1605
     73  C         53.1990    4.1700    5.5160 C.2   163  TYR163      0.2264
     74  O         53.7110    5.2580    5.7770 O.2   163  TYR163     -0.2867
     75  CB        50.9750    3.5800    6.6150 C.3   163  TYR163      0.0534
     76  CG        50.2870    2.5500    7.4930 C.ar  163  TYR163     -0.0201
     77  CD1       50.1430    2.7390    8.8560 C.ar  163  TYR163     -0.0009
     78  CD2       49.7740    1.3600    6.9290 C.ar  163  TYR163     -0.0009
     79  CE1       49.5010    1.7740    9.6750 C.ar  163  TYR163      0.0417
     80  CE2       49.1240    0.3870    7.7490 C.ar  163  TYR163      0.0417
     81  CZ        49.0120    0.5990    9.0950 C.ar  163  TYR163      0.1957
     82  OH        48.4300   -0.3670    9.8730 O.3   163  TYR163     -0.2866
     83  N         52.3670   -0.1110   16.7760 N.3   196  TYR196     -0.1241
     84  CA        52.7050    1.2770   16.4960 C.3   196  TYR196      0.1605
     85  C         51.6450    2.1360   17.1950 C.2   196  TYR196      0.2264
     86  O         50.5240    1.6670   17.4470 O.2   196  TYR196     -0.2867
     87  CB        52.7660    1.6370   14.9900 C.3   196  TYR196      0.0534
     88  CG        51.4250    1.4650   14.2990 C.ar  196  TYR196     -0.0201
     89  CD1       50.4490    2.4860   14.3360 C.ar  196  TYR196     -0.0009
     90  CD2       51.1190    0.2630   13.6280 C.ar  196  TYR196     -0.0009
     91  CE1       49.2000    2.3080   13.7420 C.ar  196  TYR196      0.0417
     92  CE2       49.8560    0.0880   13.0100 C.ar  196  TYR196      0.0417
     93  CZ        48.9160    1.1210   13.0980 C.ar  196  TYR196      0.1957
     94  OH        47.6860    0.9500   12.5130 O.3   196  TYR196     -0.2866
     95  N         48.8040    5.1200   17.2920 N.3   198  ILE198     -0.1231
     96  CA        47.9810    6.0400   16.5310 C.3   198  ILE198      0.1678
     97  C         48.4790    7.5020   16.6290 C.2   198  ILE198      0.2434
     98  O         49.2570    7.8140   17.5300 O.2   198  ILE198     -0.2733
     99  CB        46.5100    5.9410   16.9800 C.3   198  ILE198      0.0265
    100  CG1       46.2620    6.5650   18.3500 C.3   198  ILE198      0.0019
    101  CG2       46.0190    4.4410   16.9380 C.3   198  ILE198      0.0020
    102  CD1       44.7750    6.4080   18.7810 C.3   198  ILE198      0.0001
    103  N         48.0570    8.3690   15.7050 N.am  199  PRO199     -0.2729
    104  CA        48.4930    9.7790   15.7430 C.3   199  PRO199      0.1401
    105  C         48.1290   10.3670   17.1090 C.2   199  PRO199      0.2269
    106  O         46.9500   10.3180   17.4860 O.2   199  PRO199     -0.2865
    107  CB        47.6950   10.4250   14.6190 C.3   199  PRO199      0.0296
    108  CG        47.4090    9.2510   13.6430 C.3   199  PRO199      0.0237
    109  CD        47.1720    8.0720   14.5510 C.3   199  PRO199      0.0939
    110  N         48.6720    0.5440   19.1960 N.3   217  ARG217     -0.1245
    111  CA        47.8430   -0.5420   18.6590 C.3   217  ARG217      0.1563
    112  C         48.5460   -1.8940   18.7440 C.2   217  ARG217      0.2260
    113  O         49.7760   -1.9990   18.5440 O.2   217  ARG217     -0.2867
    114  CB        47.5800   -0.2780   17.1700 C.3   217  ARG217      0.0307
    115  CG        46.6100    0.8720   16.8820 C.3   217  ARG217      0.0489
    116  CD        45.5730    0.5530   15.8200 C.3   217  ARG217      0.2205
    117  NE        44.8570   -0.6570   16.1880 N.pl3 217  ARG217     -0.0865
    118  CZ        44.1300   -1.3840   15.3640 C.cat 217  ARG217      0.5346
    119  NH1       44.0600   -1.0370   14.0500 N.pl3 217  ARG217      0.1354
    120  NH2       43.5170   -2.4760   15.8390 N.pl3 217  ARG217      0.1354
    121  N         49.0920   -5.6550   13.6160 N.3   220  HIS220     -0.1241
    122  CA        48.0910   -6.2280   12.6480 C.3   220  HIS220      0.1621
    123  C         48.4550   -5.9960   11.2010 C.2   220  HIS220      0.2264
    124  O         49.3150   -5.1670   10.8840 O.2   220  HIS220     -0.2867
    125  CB        46.7180   -5.5550   12.9170 C.3   220  HIS220      0.0745
    126  CG        46.7760   -4.0680   12.7810 C.ar  220  HIS220      0.0817
    127  ND1       47.2490   -3.2670   13.7980 N.ar  220  HIS220     -0.2268
    128  CD2       46.5090   -3.2470   11.7380 C.ar  220  HIS220      0.1154
    129  CE1       47.2580   -2.0110   13.3910 C.ar  220  HIS220      0.1986
    130  NE2       46.8450   -1.9630   12.1380 N.ar  220  HIS220     -0.2212
    131  N         46.1810   -5.2860    7.7010 N.3   222  HIS222     -0.1241
    132  CA        44.8300   -4.9890    7.2180 C.3   222  HIS222      0.1621
    133  C         44.4770   -5.7030    5.9600 C.2   222  HIS222      0.2264
    134  O         45.3230   -5.8790    5.0810 O.2   222  HIS222     -0.2867
    135  CB        44.6730   -3.5310    6.8620 C.3   222  HIS222      0.0745
    136  CG        44.9170   -2.6010    7.9830 C.ar  222  HIS222      0.0817
    137  ND1       43.8890   -2.0020    8.6670 N.ar  222  HIS222     -0.2268
    138  CD2       46.0650   -2.0430    8.4340 C.ar  222  HIS222      0.1154
    139  CE1       44.4000   -1.1620    9.5520 C.ar  222  HIS222      0.1986
    140  NE2       45.7150   -1.1810    9.4300 N.ar  222  HIS222     -0.2212
    141  N         42.3310    1.3100   20.0170 N.3   250  VAL250     -0.1245
    142  CA        41.0400    1.4770   19.3300 C.3   250  VAL250      0.1561
    143  C         40.0400    0.2990   19.4440 C.2   250  VAL250      0.2260
    144  O         39.0540    0.2230   18.6730 O.2   250  VAL250     -0.2867
    145  CB        41.2520    1.9330   17.8590 C.3   250  VAL250      0.0252
    146  CG1       42.1300    3.2030   17.8180 C.3   250  VAL250      0.0019
    147  CG2       41.8150    0.8000   16.9820 C.3   250  VAL250      0.0019
@<TRIPOS>BOND
     1    67    69   ar
     2    67    64   ar
     3    61    58    1
     4    61    62    1
     5    57    58    1
     6    69    70   ar
     7    34    32   ar
     8    34    33   ar
     9    58    59    1
    10    49    48    2
    11    64    62   ar
    12    64    66   ar
    13    62    63   ar
    14    32    30   ar
    15    70    68   ar
    16    33    31   ar
    17    48    47    1
    18   134   133    2
    19    66    68   ar
    20    66    65   ar
    21    63    65   ar
    22    59    60    2
    23    73    74    2
    24    73    72    1
    25    30    29   ar
    26   133   132    1
    27    47    50    1
    28    47    46    1
    29    31    29   ar
    30    42    41    2
    31    72    75    1
    32    72    71    1
    33    75    76    1
    34    29    28    1
    35   135   132    1
    36   135   136    1
    37    50    51    1
    38    46    41   am
    39    41    40    1
    40    78    76   ar
    41    78    80   ar
    42   132   131    1
    43    76    77   ar
    44    52    51   ar
    45    52    54   ar
    46    80    81   ar
    47    38    37    2
    48    40    43    1
    49    40    39    1
    50    51    53   ar
    51   136   138   ar
    52   136   137   ar
    53    28    25    1
    54   138   140   ar
    55    27    26    2
    56   137   139   ar
    57    54    56   ar
    58    43    44    1
    59    77    79   ar
    60    25    26    1
    61    25    24    1
    62    37    39   am
    63    37    36    1
    64    39    45    1
    65    26    35   am
    66    81    79   ar
    67    81    82    1
    68    53    55   ar
    69   140   139   ar
    70    35    36    1
    71    44    45    1
    72    56    55   ar
    73    24    19   am
    74    20    19    2
    75   124   123    2
    76    19    18    1
    77   123   122    1
    78   128   130   ar
    79   128   126   ar
    80   130   129   ar
    81    18    17    1
    82    18    21    1
    83    94    93    1
    84   122   125    1
    85   122   121    1
    86   126   125    1
    87   126   127   ar
    88    92    93   ar
    89    92    90   ar
    90    93    91   ar
    91    21    23    1
    92    21    22    1
    93   129   127   ar
    94    90    88   ar
    95   108   109    1
    96   108   107    1
    97    91    89   ar
    98   119   118    1
    99    88    89   ar
   100    88    87    1
   101    16    14   ar
   102   109   103    1
   103    15    14   ar
   104   107   104    1
   105     8     6    1
   106     1     2    1
   107     6     7    1
   108     6     5    1
   109    87    84    1
   110    14    13    1
   111   118   120    1
   112   118   117    2
   113   103   104    1
   114   103    97   am
   115   104   105    1
   116   116   117    1
   117   116   115    1
   118     2     5    1
   119     2     3    1
   120    84    83    1
   121    84    85    1
   122    96    97    1
   123    96    99    1
   124    96    95    1
   125    97    98    2
   126    13    10    1
   127   115   114    1
   128   101    99    1
   129    99   100    1
   130   147   145    1
   131   105   106    2
   132   114   111    1
   133    85    86    2
   134     3     4    2
   135     9    10    1
   136    10    11    1
   137   146   145    1
   138   145   142    1
   139   100   102    1
   140   113   112    2
   141   111   112    1
   142   111   110    1
   143   144   143    2
   144    11    12    2
   145   142   143    1
   146   142   141    1
