@<TRIPOS>MOLECULE
tmp/1tn6B00.pdb
 249 247 0 0 0
SMALL
GASTEIGER

@<TRIPOS>ATOM
      1  N          1.6580  140.9250   10.6140 N.3    67  TYR67      -0.1241
      2  CA         2.8110  141.3020    9.7950 C.3    67  TYR67       0.1605
      3  C          2.5550  140.8600    8.3510 C.2    67  TYR67       0.2264
      4  O          2.7880  141.6140    7.4010 O.2    67  TYR67      -0.2867
      5  CB         4.0700  140.6230   10.3580 C.3    67  TYR67       0.0534
      6  CG         5.2930  140.6300    9.4560 C.ar   67  TYR67      -0.0201
      7  CD1        5.8930  141.8240    9.0480 C.ar   67  TYR67      -0.0009
      8  CD2        5.8860  139.4290    9.0610 C.ar   67  TYR67      -0.0009
      9  CE1        7.0600  141.8170    8.2710 C.ar   67  TYR67       0.0417
     10  CE2        7.0460  139.4120    8.2910 C.ar   67  TYR67       0.0417
     11  CZ         7.6300  140.6010    7.9020 C.ar   67  TYR67       0.1957
     12  OH         8.7930  140.5600    7.1650 O.3    67  TYR67      -0.2866
     13  N          7.2840  148.6970    2.2440 N.3    76  THR76      -0.1218
     14  CA         8.0980  149.9100    2.2690 C.3    76  THR76       0.1862
     15  C          9.1520  149.7970    1.1690 C.2    76  THR76       0.2287
     16  O          9.3370  148.7210    0.5940 O.2    76  THR76      -0.2866
     17  CB         8.8250  150.0850    3.6170 C.3    76  THR76       0.1770
     18  OG1        9.8660  149.1060    3.7310 O.3    76  THR76      -0.2211
     19  CG2        7.8510  149.9130    4.7760 C.3    76  THR76       0.0375
     20  N         12.0390  149.3750    1.3490 N.3    78  ALA78      -0.1231
     21  CA        13.1040  148.4590    1.7300 C.3    78  ALA78       0.1694
     22  C         13.0010  147.2510    0.8000 C.2    78  ALA78       0.2592
     23  O         13.9440  146.4680    0.6680 O.2    78  ALA78      -0.2718
     24  CB        12.9340  148.0200    3.1820 C.3    78  ALA78       0.0304
     25  N         11.8450  147.1050    0.1560 N.am   79  TYR79      -0.1976
     26  CA        11.6260  145.9950   -0.7610 C.3    79  TYR79       0.1639
     27  C         11.8300  146.3530   -2.2330 C.2    79  TYR79       0.2290
     28  O         11.4380  145.5970   -3.1220 O.2    79  TYR79      -0.2864
     29  CB        10.2330  145.3820   -0.5400 C.3    79  TYR79       0.0560
     30  CG        10.1990  144.4210    0.6340 C.ar   79  TYR79      -0.0198
     31  CD1       10.0120  144.8790    1.9410 C.ar   79  TYR79      -0.0009
     32  CD2       10.4450  143.0600    0.4450 C.ar   79  TYR79      -0.0009
     33  CE1       10.0800  144.0040    3.0320 C.ar   79  TYR79       0.0417
     34  CE2       10.5180  142.1800    1.5260 C.ar   79  TYR79       0.0417
     35  CZ        10.3380  142.6580    2.8160 C.ar   79  TYR79       0.1957
     36  OH        10.4480  141.7900    3.8820 O.3    79  TYR79      -0.2866
     37  N         14.4850  146.2310   -3.6780 N.3    81  CYS81      -0.1221
     38  CA        15.4180  145.2200   -4.1690 C.3    81  CYS81       0.1808
     39  C         14.7030  143.9550   -4.6320 C.2    81  CYS81       0.2601
     40  O         15.3160  143.0830   -5.2480 O.2    81  CYS81      -0.2717
     41  CB        16.4430  144.8640   -3.0880 C.3    81  CYS81       0.0970
     42  SG        15.7250  144.1790   -1.5780 S.3    81  CYS81      -0.0800
     43  N         13.4100  143.8580   -4.3360 N.am   82  LEU82      -0.1979
     44  CA        12.6220  142.6990   -4.7390 C.3    82  LEU82       0.1596
     45  C         11.5360  143.0680   -5.7490 C.2    82  LEU82       0.2287
     46  O         10.5470  142.3560   -5.9050 O.2    82  LEU82      -0.2864
     47  CB        12.0120  142.0240   -3.4990 C.3    82  LEU82       0.0297
     48  CG        13.0570  141.2370   -2.6930 C.3    82  LEU82       0.0022
     49  CD1       12.5050  140.7930   -1.3490 C.3    82  LEU82       0.0001
     50  CD2       13.4990  140.0310   -3.5120 C.3    82  LEU82       0.0001
     51  N         11.6500  142.8020   -8.7930 N.3    84  ALA84      -0.1231
     52  CA        11.6250  141.8240   -9.8740 C.3    84  ALA84       0.1694
     53  C         11.2450  140.4450   -9.3160 C.2    84  ALA84       0.2592
     54  O         11.4600  139.4190   -9.9650 O.2    84  ALA84      -0.2718
     55  CB        12.9940  141.7680  -10.5640 C.3    84  ALA84       0.0304
     56  N         10.6740  140.4410   -8.1110 N.am   85  SER85      -0.1952
     57  CA        10.2420  139.2130   -7.4300 C.3    85  SER85       0.1924
     58  C          8.8810  139.3710   -6.7450 C.2    85  SER85       0.2314
     59  O          8.6600  138.7780   -5.6850 O.2    85  SER85      -0.2863
     60  CB        11.2650  138.8000   -6.3580 C.3    85  SER85       0.2116
     61  OG        12.4590  138.2780   -6.9190 O.3    85  SER85      -0.2180
     62  N          6.9650  136.2500   -5.7980 N.3    88  TRP88      -0.1241
     63  CA         7.5630  135.5680   -4.6500 C.3    88  TRP88       0.1605
     64  C          6.9540  136.1280   -3.3700 C.2    88  TRP88       0.2264
     65  O          6.6650  135.3860   -2.4310 O.2    88  TRP88      -0.2867
     66  CB         9.0780  135.7800   -4.6070 C.3    88  TRP88       0.0550
     67  CG         9.8430  134.8260   -5.4560 C.ar   88  TRP88       0.0003
     68  CD1       10.5190  135.1110   -6.6080 C.ar   88  TRP88       0.0946
     69  CD2       10.0160  133.4220   -5.2230 C.ar   88  TRP88       0.0152
     70  NE1       11.1060  133.9690   -7.1060 N.ar   88  TRP88      -0.2442
     71  CE2       10.8120  132.9190   -6.2750 C.ar   88  TRP88       0.0810
     72  CE3        9.5740  132.5420   -4.2250 C.ar   88  TRP88       0.0012
     73  CZ2       11.1790  131.5690   -6.3600 C.ar   88  TRP88       0.0191
     74  CZ3        9.9410  131.1950   -4.3090 C.ar   88  TRP88       0.0001
     75  CH2       10.7350  130.7270   -5.3700 C.ar   88  TRP88       0.0015
     76  N          5.2800  133.7220   -0.7310 N.3    92  TRP92      -0.1241
     77  CA         5.8090  133.6640    0.6320 C.3    92  TRP92       0.1605
     78  C          4.7540  134.0370    1.6630 C.2    92  TRP92       0.2264
     79  O          4.6050  133.3640    2.6860 O.2    92  TRP92      -0.2867
     80  CB         7.0070  134.6050    0.8070 C.3    92  TRP92       0.0550
     81  CG         8.2350  134.2310    0.0250 C.ar   92  TRP92       0.0003
     82  CD1        8.6430  132.9730   -0.3220 C.ar   92  TRP92       0.0946
     83  CD2        9.2280  135.1290   -0.4820 C.ar   92  TRP92       0.0152
     84  NE1        9.8280  133.0350   -1.0180 N.ar   92  TRP92      -0.2442
     85  CE2       10.2090  134.3460   -1.1320 C.ar   92  TRP92       0.0810
     86  CE3        9.3840  136.5220   -0.4530 C.ar   92  TRP92       0.0012
     87  CZ2       11.3330  134.9090   -1.7500 C.ar   92  TRP92       0.0191
     88  CZ3       10.5060  137.0840   -1.0700 C.ar   92  TRP92       0.0001
     89  CH2       11.4630  136.2750   -1.7080 C.ar   92  TRP92       0.0015
     90  N         10.3360  134.5600  -16.1660 N.3   135  HIS135     -0.1241
     91  CA        11.5130  133.9530  -15.5390 C.3   135  HIS135      0.1621
     92  C         10.9590  132.7610  -14.7490 C.2   135  HIS135      0.2264
     93  O          9.8730  132.8520  -14.1710 O.2   135  HIS135     -0.2867
     94  CB        12.1450  135.0200  -14.6310 C.3   135  HIS135      0.0745
     95  CG        13.4550  134.6390  -14.0090 C.ar  135  HIS135      0.0817
     96  ND1       13.5720  133.6270  -13.0810 N.ar  135  HIS135     -0.2268
     97  CD2       14.6730  135.2300  -14.0780 C.ar  135  HIS135      0.1154
     98  CE1       14.8040  133.6180  -12.5970 C.ar  135  HIS135      0.1986
     99  NE2       15.4910  134.5810  -13.1840 N.ar  135  HIS135     -0.2212
    100  N         11.7170  131.4480  -11.8620 N.3   137  ALA137     -0.1231
    101  CA        11.5340  131.6220  -10.4190 C.3   137  ALA137      0.1679
    102  C         10.1820  132.2860  -10.1340 C.2   137  ALA137      0.2434
    103  O          9.3800  131.7550   -9.3600 O.2   137  ALA137     -0.2733
    104  CB        12.6900  132.4360   -9.8220 C.3   137  ALA137      0.0304
    105  N          9.9090  133.4620  -10.7330 N.am  138  PRO138     -0.2729
    106  CA         8.5900  134.0280  -10.4260 C.3   138  PRO138      0.1401
    107  C          7.4470  133.1850  -11.0120 C.2   138  PRO138      0.2269
    108  O          6.3180  133.2390  -10.5240 O.2   138  PRO138     -0.2865
    109  CB         8.6540  135.4490  -11.0100 C.3   138  PRO138      0.0296
    110  CG         9.7980  135.4120  -11.9860 C.3   138  PRO138      0.0237
    111  CD        10.7900  134.4620  -11.3640 C.3   138  PRO138      0.0939
    112  N         20.8600  132.5570  -16.9150 N.3   184  GLU184     -0.1245
    113  CA        21.7470  131.5550  -16.3330 C.3   184  GLU184      0.1567
    114  C         21.1280  130.1720  -16.1690 C.2   184  GLU184      0.2260
    115  O         19.9080  130.0100  -16.1720 O.2   184  GLU184     -0.2867
    116  CB        22.2540  132.0340  -14.9590 C.3   184  GLU184      0.0388
    117  CG        21.2330  131.9180  -13.8140 C.3   184  GLU184      0.1160
    118  CD        20.3050  133.1230  -13.6790 C.2   184  GLU184      0.3649
    119  OE1       20.1400  133.8820  -14.6600 O.co2 184  GLU184     -0.2457
    120  OE2       19.7240  133.3030  -12.5850 O.co2 184  GLU184     -0.2457
    121  N         18.0110  125.1600   -9.9880 N.3   188  ARG188     -0.1245
    122  CA        16.7550  125.8100   -9.6430 C.3   188  ARG188      0.1563
    123  C         15.7840  125.7070  -10.8210 C.2   188  ARG188      0.2260
    124  O         14.5920  125.4860  -10.6290 O.2   188  ARG188     -0.2867
    125  CB        16.9670  127.2940   -9.3280 C.3   188  ARG188      0.0307
    126  CG        17.6770  127.6270   -8.0170 C.3   188  ARG188      0.0489
    127  CD        17.9290  129.1430   -7.9540 C.3   188  ARG188      0.2205
    128  NE        18.6860  129.5800   -9.1300 N.pl3 188  ARG188     -0.0865
    129  CZ        18.5840  130.7770   -9.7040 C.cat 188  ARG188      0.5346
    130  NH1       17.7540  131.6930   -9.2180 N.pl3 188  ARG188      0.1354
    131  NH2       19.2930  131.0460  -10.7940 N.pl3 188  ARG188      0.1354
    132  N         20.8520  128.7740    9.7490 N.3   283  ASP283     -0.1239
    133  CA        19.9330  129.7630    9.1810 C.3   283  ASP283      0.1674
    134  C         18.5340  129.1560    9.1510 C.2   283  ASP283      0.2266
    135  O         18.3380  128.0550    8.6420 O.2   283  ASP283     -0.2867
    136  CB        20.3900  130.1530    7.7630 C.3   283  ASP283      0.1410
    137  CG        19.4440  131.1380    7.0630 C.2   283  ASP283      0.3668
    138  OD1       19.8790  131.7340    6.0560 O.co2 283  ASP283     -0.2456
    139  OD2       18.2810  131.3130    7.4870 O.co2 283  ASP283     -0.2456
    140  N         15.9660  129.5640    7.3080 N.3   285  CYS285     -0.1221
    141  CA        15.3280  129.1530    6.0610 C.3   285  CYS285      0.1808
    142  C         15.7040  127.7240    5.6580 C.2   285  CYS285      0.2601
    143  O         14.9510  127.0690    4.9370 O.2   285  CYS285     -0.2717
    144  CB        15.6230  130.1440    4.9180 C.3   285  CYS285      0.0970
    145  SG        17.3240  130.2500    4.3350 S.3   285  CYS285     -0.0800
    146  N         16.8490  127.2290    6.1330 N.am  286  TYR286     -0.1976
    147  CA        17.2520  125.8590    5.8080 C.3   286  TYR286      0.1639
    148  C         16.3930  124.8590    6.5750 C.2   286  TYR286      0.2290
    149  O         16.5000  123.6490    6.3770 O.2   286  TYR286     -0.2864
    150  CB        18.7510  125.6510    6.0890 C.3   286  TYR286      0.0560
    151  CG        19.6100  126.4760    5.1590 C.ar  286  TYR286     -0.0198
    152  CD1       20.5920  127.3320    5.6560 C.ar  286  TYR286     -0.0009
    153  CD2       19.3830  126.4640    3.7820 C.ar  286  TYR286     -0.0009
    154  CE1       21.3200  128.1610    4.8050 C.ar  286  TYR286      0.0417
    155  CE2       20.1060  127.2910    2.9220 C.ar  286  TYR286      0.0417
    156  CZ        21.0680  128.1370    3.4430 C.ar  286  TYR286      0.1957
    157  OH        21.7670  128.9710    2.6010 O.3   286  TYR286     -0.2866
    158  N         14.6130  124.0640    3.2590 N.3   289  TRP289     -0.1241
    159  CA        15.4520  123.5130    2.1980 C.3   289  TRP289      0.1605
    160  C         16.1860  122.2340    2.5800 C.2   289  TRP289      0.2264
    161  O         16.2580  121.3090    1.7750 O.2   289  TRP289     -0.2867
    162  CB        16.4580  124.5520    1.6930 C.3   289  TRP289      0.0550
    163  CG        15.8300  125.8460    1.2430 C.ar  289  TRP289      0.0003
    164  CD1       16.0620  127.0830    1.7710 C.ar  289  TRP289      0.0946
    165  CD2       14.8850  126.0360    0.1780 C.ar  289  TRP289      0.0152
    166  NE1       15.3250  128.0320    1.1040 N.ar  289  TRP289     -0.2442
    167  CE2       14.5940  127.4190    0.1210 C.ar  289  TRP289      0.0810
    168  CE3       14.2580  125.1760   -0.7350 C.ar  289  TRP289      0.0012
    169  CZ2       13.7020  127.9630   -0.8100 C.ar  289  TRP289      0.0191
    170  CZ3       13.3660  125.7190   -1.6660 C.ar  289  TRP289      0.0001
    171  CH2       13.1000  127.1030   -1.6920 C.ar  289  TRP289      0.0015
    172  N         16.4100  134.5880    9.9400 N.3   338  ASP338     -0.1239
    173  CA        17.5760  133.7290    9.7400 C.3   338  ASP338      0.1674
    174  C         18.1830  133.2570   11.0720 C.2   338  ASP338      0.2266
    175  O         18.2340  132.0560   11.3530 O.2   338  ASP338     -0.2867
    176  CB        18.5620  134.5430    8.8840 C.3   338  ASP338      0.1410
    177  CG        19.9870  134.0290    8.9150 C.2   338  ASP338      0.3668
    178  OD1       20.3060  133.0470    9.6140 O.co2 338  ASP338     -0.2456
    179  OD2       20.8070  134.6530    8.2110 O.co2 338  ASP338     -0.2456
    180  N         17.2890  140.8530   10.8120 N.3   343  SER343     -0.1202
    181  CA        15.9520  141.4180   10.7670 C.3   343  SER343      0.2020
    182  C         15.0200  140.4680   10.0270 C.2   343  SER343      0.2619
    183  O         15.4500  139.6690    9.1940 O.2   343  SER343     -0.2717
    184  CB        15.9700  142.7870   10.0830 C.3   343  SER343      0.2103
    185  OG        16.5530  142.7100    8.7960 O.3   343  SER343     -0.2182
    186  N         13.7400  140.5530   10.3510 N.am  344  ARG344     -0.1965
    187  CA        12.7280  139.7130    9.7320 C.3   344  ARG344      0.1729
    188  C         12.5460  140.0730    8.2590 C.2   344  ARG344      0.2616
    189  O         12.9220  141.1560    7.8170 O.2   344  ARG344     -0.2715
    190  CB        11.3910  139.9300   10.4360 C.3   344  ARG344      0.0348
    191  CG        10.8480  141.3460   10.2110 C.3   344  ARG344      0.0492
    192  CD         9.5660  141.6270   10.9750 C.3   344  ARG344      0.2205
    193  NE         9.0660  142.9770   10.7020 N.pl3 344  ARG344     -0.0865
    194  CZ         7.9950  143.5090   11.2820 C.cat 344  ARG344      0.5346
    195  NH1        7.3050  142.8110   12.1750 N.pl3 344  ARG344      0.1354
    196  NH2        7.6060  144.7390   10.9640 N.pl3 344  ARG344      0.1354
    197  N         11.9750  139.1450    7.5050 N.am  345  ASP345     -0.1957
    198  CA        11.6420  139.3760    6.1050 C.3   345  ASP345      0.1840
    199  C         10.6530  138.2900    5.7320 C.2   345  ASP345      0.2622
    200  O         10.5730  137.2610    6.4050 O.2   345  ASP345     -0.2715
    201  CB        12.8750  139.3880    5.1830 C.3   345  ASP345      0.1450
    202  CG        13.6510  138.0900    5.1980 C.2   345  ASP345      0.3671
    203  OD1       13.0500  137.0260    4.9580 O.co2 345  ASP345     -0.2456
    204  OD2       14.8750  138.1510    5.4350 O.co2 345  ASP345     -0.2456
    205  N          9.8740  138.5210    4.6860 N.am  346  PHE346     -0.1960
    206  CA         8.8670  137.5500    4.2910 C.3   346  PHE346      0.1771
    207  C          9.4090  136.2090    3.8210 C.2   346  PHE346      0.2620
    208  O          8.7510  135.1830    3.9910 O.2   346  PHE346     -0.2715
    209  CB         7.9480  138.1690    3.2410 C.3   346  PHE346      0.0574
    210  CG         7.2010  139.3630    3.7540 C.ar  346  PHE346     -0.0200
    211  CD1        7.5630  140.6500    3.3700 C.ar  346  PHE346     -0.0042
    212  CD2        6.1760  139.2000    4.6840 C.ar  346  PHE346     -0.0042
    213  CE1        6.9130  141.7650    3.9130 C.ar  346  PHE346     -0.0003
    214  CE2        5.5210  140.3050    5.2330 C.ar  346  PHE346     -0.0003
    215  CZ         5.8890  141.5860    4.8460 C.ar  346  PHE346     -0.0000
    216  N         10.6020  136.2160    3.2400 N.am  347  TYR347     -0.1960
    217  CA        11.2240  134.9800    2.7780 C.3   347  TYR347      0.1771
    218  C         11.4960  134.0550    3.9700 C.2   347  TYR347      0.2619
    219  O         11.1310  132.8800    3.9470 O.2   347  TYR347     -0.2715
    220  CB        12.5310  135.2970    2.0440 C.3   347  TYR347      0.0574
    221  CG        13.4600  134.1130    1.8720 C.ar  347  TYR347     -0.0198
    222  CD1       13.2700  133.1850    0.8490 C.ar  347  TYR347     -0.0009
    223  CD2       14.5330  133.9240    2.7410 C.ar  347  TYR347     -0.0009
    224  CE1       14.1340  132.0950    0.6940 C.ar  347  TYR347      0.0417
    225  CE2       15.3980  132.8370    2.5990 C.ar  347  TYR347      0.0417
    226  CZ        15.1940  131.9320    1.5730 C.ar  347  TYR347      0.1957
    227  OH        16.0570  130.8720    1.4250 O.3   347  TYR347     -0.2866
    228  N         12.1370  134.5740    5.0140 N.am  348  HIS348     -0.1973
    229  CA        12.4140  133.7330    6.1730 C.3   348  HIS348      0.1656
    230  C         11.1560  133.3670    6.9460 C.2   348  HIS348      0.2291
    231  O         11.1010  132.3240    7.6030 O.2   348  HIS348     -0.2864
    232  CB        13.4520  134.3910    7.0890 C.3   348  HIS348      0.0771
    233  CG        14.8450  134.3060    6.5510 C.ar  348  HIS348      0.0820
    234  ND1       15.4210  135.3160    5.8070 N.ar  348  HIS348     -0.2267
    235  CD2       15.7430  133.2920    6.5660 C.ar  348  HIS348      0.1154
    236  CE1       16.6120  134.9230    5.3870 C.ar  348  HIS348      0.1986
    237  NE2       16.8300  133.6990    5.8330 N.ar  348  HIS348     -0.2212
    238  N          9.8080  130.1690    4.9360 N.3   351  TYR351     -0.1241
    239  CA        10.5400  128.9330    5.1690 C.3   351  TYR351      0.1605
    240  C         10.7660  128.4630    6.6000 C.2   351  TYR351      0.2264
    241  O         10.8880  127.2580    6.8390 O.2   351  TYR351     -0.2867
    242  CB        11.8340  128.9790    4.3590 C.3   351  TYR351      0.0534
    243  CG        11.5040  129.0520    2.8820 C.ar  351  TYR351     -0.0201
    244  CD1       11.5780  130.2560    2.1830 C.ar  351  TYR351     -0.0009
    245  CD2       11.0300  127.9260    2.2060 C.ar  351  TYR351     -0.0009
    246  CE1       11.1800  130.3410    0.8430 C.ar  351  TYR351      0.0417
    247  CE2       10.6290  128.0000    0.8670 C.ar  351  TYR351      0.0417
    248  CZ        10.7090  129.2100    0.1950 C.ar  351  TYR351      0.1957
    249  OH        10.3190  129.2900   -1.1240 O.3   351  TYR351     -0.2866
@<TRIPOS>BOND
     1   112   113    1
     2   113   114    1
     3   113   116    1
     4   115   114    2
     5    90    91    1
     6    91    92    1
     7    91    94    1
     8   116   117    1
     9    92    93    2
    10   119   118   ar
    11    94    95    1
    12    97    95   ar
    13    97    99   ar
    14    95    96   ar
    15   117   118    1
    16   118   120   ar
    17    99    98   ar
    18    96    98   ar
    19   110   111    1
    20   110   109    1
    21   100   101    1
    22   111   105    1
    23   107   108    2
    24   107   106    1
    25   109   106    1
    26   123   124    2
    27   123   122    1
    28   131   129    1
    29   105   106    1
    30   105   102   am
    31    55    52    1
    32   101   102    1
    33   101   104    1
    34   102   103    2
    35   121   122    1
    36    54    53    2
    37    52    53    1
    38    52    51    1
    39   129   130    1
    40   129   128    2
    41   122   125    1
    42   125   126    1
    43    53    56   am
    44   128   127    1
    45    56    57    1
    46   126   127    1
    47    57    58    1
    48    57    60    1
    49    70    68   ar
    50    70    71   ar
    51    61    60    1
    52    58    59    2
    53    68    67   ar
    54    73    71   ar
    55    73    75   ar
    56    71    69   ar
    57    46    45    2
    58    62    63    1
    59    45    44    1
    60    67    69   ar
    61    67    66    1
    62    75    74   ar
    63    40    39    2
    64    69    72   ar
    65    44    43    1
    66    44    47    1
    67    63    66    1
    68    63    64    1
    69    39    43   am
    70    39    38    1
    71    74    72   ar
    72    38    37    1
    73    38    41    1
    74    50    48    1
    75    47    48    1
    76    64    65    2
    77    28    27    2
    78    41    42    1
    79    48    49    1
    80    27    26    1
    81    87    89   ar
    82    87    85   ar
    83    89    88   ar
    84   171   170   ar
    85   171   169   ar
    86   170   168   ar
    87    85    84   ar
    88    85    83   ar
    89   249   248    1
    90    88    86   ar
    91    84    82   ar
    92   169   167   ar
    93    26    29    1
    94    26    25    1
    95   168   165   ar
    96    76    77    1
    97    29    30    1
    98    83    86   ar
    99    83    81   ar
   100    82    81   ar
   101    81    80    1
   102   167   165   ar
   103   167   166   ar
   104    25    22   am
   105   165   163   ar
   106   248   246   ar
   107   248   247   ar
   108    32    30   ar
   109    32    34   ar
   110    16    15    2
   111    77    80    1
   112    77    78    1
   113    30    31   ar
   114    23    22    2
   115   224   222   ar
   116   224   226   ar
   117    22    21    1
   118   246   244   ar
   119   222   221   ar
   120   247   245   ar
   121   166   164   ar
   122    15    14    1
   123   163   162    1
   124   163   164   ar
   125    20    21    1
   126   227   226    1
   127    34    35   ar
   128   226   225   ar
   129    78    79    2
   130   162   159    1
   131    21    24    1
   132   161   160    2
   133   221   220    1
   134   221   223   ar
   135    31    33   ar
   136   220   217    1
   137   244   243   ar
   138   159   160    1
   139   159   158    1
   140   245   243   ar
   141    13    14    1
   142    14    17    1
   143   225   223   ar
   144   157   156    1
   145   217   216    1
   146   217   218    1
   147    35    33   ar
   148    35    36    1
   149   243   242    1
   150   155   156   ar
   151   155   153   ar
   152   216   207   am
   153   209   210    1
   154   209   206    1
   155   211   210   ar
   156   211   213   ar
   157   156   154   ar
   158    17    18    1
   159    17    19    1
   160   210   212   ar
   161   153   151   ar
   162   207   208    2
   163   207   206    1
   164   213   215   ar
   165   219   218    2
   166   218   228   am
   167   206   205    1
   168   145   144    1
   169   242   239    1
   170   212   214   ar
   171   205   199   am
   172   154   152   ar
   173   215   214   ar
   174   144   141    1
   175   238   239    1
   176   143   142    2
   177   203   202   ar
   178   228   229    1
   179   151   152   ar
   180   151   150    1
   181   239   240    1
   182   201   202    1
   183   201   198    1
   184   202   204   ar
   185   236   234   ar
   186   236   237   ar
   187   142   141    1
   188   142   146   am
   189   199   198    1
   190   199   200    2
   191   234   233   ar
   192   147   150    1
   193   147   146    1
   194   147   148    1
   195   237   235   ar
   196   138   137   ar
   197   141   140    1
   198   198   197    1
   199   229   230    1
   200   229   232    1
   201   149   148    2
   202   233   235   ar
   203   233   232    1
   204   240   241    2
   205   230   231    2
   206   137   139   ar
   207   137   136    1
   208    12    11    1
   209     4     3    2
   210   197   188   am
   211   136   133    1
   212   189   188    2
   213    11     9   ar
   214    11    10   ar
   215   179   177   ar
   216   188   187    1
   217     9     7   ar
   218    10     8   ar
   219     3     2    1
   220   135   134    2
   221   185   184    1
   222   176   177    1
   223   176   173    1
   224   177   178   ar
   225     7     6   ar
   226     8     6   ar
   227   134   133    1
   228   133   132    1
   229   183   182    2
   230     6     5    1
   231   187   186    1
   232   187   190    1
   233   173   172    1
   234   173   174    1
   235     2     5    1
   236     2     1    1
   237   182   186   am
   238   182   181    1
   239   184   181    1
   240   191   190    1
   241   191   192    1
   242   193   192    1
   243   193   194    2
   244   181   180    1
   245   196   194    1
   246   174   175    2
   247   194   195    1
