@<TRIPOS>MOLECULE
tmp/1tn7B00.pdb
 177 173 0 0 0
SMALL
GASTEIGER

@<TRIPOS>ATOM
      1  N         96.6020   11.8610   34.6210 N.3    80  LEU80      -0.1245
      2  CA        95.7120   13.0080   34.5840 C.3    80  LEU80       0.1561
      3  C         94.3780   12.6940   35.2530 C.2    80  LEU80       0.2260
      4  O         93.3780   13.3700   35.0160 O.2    80  LEU80      -0.2867
      5  CB        95.5110   13.4680   33.1330 C.3    80  LEU80       0.0270
      6  CG        96.7480   14.1490   32.5150 C.3    80  LEU80       0.0019
      7  CD1       96.6060   14.2830   31.0090 C.3    80  LEU80       0.0001
      8  CD2       96.9380   15.5270   33.1520 C.3    80  LEU80       0.0001
      9  N         92.8510   15.5540   36.8780 N.3    83  SER83      -0.1217
     10  CA        92.6860   16.7030   35.9890 C.3    83  SER83       0.1889
     11  C         91.6520   16.4150   34.9080 C.2    83  SER83       0.2288
     12  O         91.7710   16.9000   33.7860 O.2    83  SER83      -0.2866
     13  CB        94.0130   17.0390   35.3070 C.3    83  SER83       0.2089
     14  OG        95.0500   17.2360   36.2520 O.3    83  SER83      -0.2183
     15  N         90.1000   19.1720   32.8950 N.3    86  TRP86      -0.1241
     16  CA        91.0040   19.7060   31.8740 C.3    86  TRP86       0.1605
     17  C         90.8350   18.9210   30.5810 C.2    86  TRP86       0.2264
     18  O         90.8800   19.4850   29.4870 O.2    86  TRP86      -0.2867
     19  CB        92.4670   19.5950   32.3110 C.3    86  TRP86       0.0550
     20  CG        92.9280   20.6790   33.2330 C.ar   86  TRP86       0.0003
     21  CD1       93.0650   20.6020   34.5860 C.ar   86  TRP86       0.0946
     22  CD2       93.3360   22.0000   32.8610 C.ar   86  TRP86       0.0152
     23  NE1       93.5380   21.7900   35.0800 N.ar   86  TRP86      -0.2442
     24  CE2       93.7120   22.6670   34.0420 C.ar   86  TRP86       0.0810
     25  CE3       93.4200   22.6830   31.6410 C.ar   86  TRP86       0.0012
     26  CZ2       94.1710   23.9950   34.0440 C.ar   86  TRP86       0.0191
     27  CZ3       93.8760   24.0060   31.6430 C.ar   86  TRP86       0.0001
     28  CH2       94.2450   24.6430   32.8370 C.ar   86  TRP86       0.0015
     29  N         90.1840   20.7610   27.2140 N.3    90  TRP90      -0.1241
     30  CA        91.1040   20.6530   26.0830 C.3    90  TRP90       0.1605
     31  C         90.4160   20.0970   24.8440 C.2    90  TRP90       0.2264
     32  O         90.5400   20.6570   23.7470 O.2    90  TRP90      -0.2867
     33  CB        92.2970   19.7470   26.4070 C.3    90  TRP90       0.0550
     34  CG        93.2320   20.2730   27.4510 C.ar   90  TRP90       0.0003
     35  CD1       93.5520   21.5840   27.6900 C.ar   90  TRP90       0.0946
     36  CD2       94.0020   19.4960   28.3790 C.ar   90  TRP90       0.0152
     37  NE1       94.4680   21.6680   28.7060 N.ar   90  TRP90      -0.2442
     38  CE2       94.7630   20.4040   29.1500 C.ar   90  TRP90       0.0810
     39  CE3       94.1220   18.1170   28.6320 C.ar   90  TRP90       0.0012
     40  CZ2       95.6360   19.9820   30.1620 C.ar   90  TRP90       0.0191
     41  CZ3       94.9900   17.6940   29.6360 C.ar   90  TRP90       0.0001
     42  CH2       95.7370   18.6280   30.3900 C.ar   90  TRP90       0.0015
     43  N         90.1500   22.5970   43.4680 N.3   133  HIS133     -0.1241
     44  CA        91.4760   23.1080   43.1300 C.3   133  HIS133      0.1621
     45  C         91.2510   24.1550   42.0240 C.2   133  HIS133      0.2264
     46  O         90.4080   23.9610   41.1450 O.2   133  HIS133     -0.2867
     47  CB        92.3140   21.9210   42.6260 C.3   133  HIS133      0.0745
     48  CG        93.7530   22.2330   42.3500 C.ar  133  HIS133      0.0817
     49  ND1       94.1590   23.0420   41.3090 N.ar  133  HIS133     -0.2268
     50  CD2       94.8880   21.7860   42.9460 C.ar  133  HIS133      0.1154
     51  CE1       95.4800   23.0790   41.2730 C.ar  133  HIS133      0.1986
     52  NE2       95.9470   22.3260   42.2550 N.ar  133  HIS133     -0.2212
     53  N         92.9530   24.9600   39.3430 N.3   135  ALA135     -0.1231
     54  CA        93.2120   24.5690   37.9600 C.3   135  ALA135      0.1679
     55  C         91.9860   23.8430   37.3660 C.2   135  ALA135      0.2434
     56  O         91.4570   24.2500   36.3230 O.2   135  ALA135     -0.2733
     57  CB        94.4640   23.7000   37.8780 C.3   135  ALA135      0.0304
     58  N         91.5140   22.7620   38.0150 N.am  136  PRO136     -0.2729
     59  CA        90.3390   22.1040   37.4250 C.3   136  PRO136      0.1401
     60  C         89.0770   22.9880   37.4860 C.2   136  PRO136      0.2269
     61  O         88.1400   22.8030   36.6980 O.2   136  PRO136     -0.2865
     62  CB        90.2080   20.8070   38.2360 C.3   136  PRO136      0.0296
     63  CG        90.8960   21.1280   39.5460 C.3   136  PRO136      0.0237
     64  CD        92.0890   21.9470   39.1020 C.3   136  PRO136      0.0939
     65  N        100.0510   25.1330   46.9570 N.3   182  GLU182     -0.1245
     66  CA       101.0850   26.0800   46.5500 C.3   182  GLU182      0.1567
     67  C        100.5350   27.3880   45.9740 C.2   182  GLU182      0.2260
     68  O         99.3710   27.4760   45.5630 O.2   182  GLU182     -0.2867
     69  CB       102.0230   25.4360   45.5200 C.3   182  GLU182      0.0388
     70  CG       101.4280   25.2900   44.1300 C.3   182  GLU182      0.1160
     71  CD       100.5870   24.0290   43.9640 C.2   182  GLU182      0.3649
     72  OE1      100.2330   23.3830   44.9760 O.co2 182  GLU182     -0.2457
     73  OE2      100.2720   23.6880   42.8060 O.co2 182  GLU182     -0.2457
     74  N         99.5920   31.2550   38.4780 N.3   186  ARG186     -0.1245
     75  CA        98.5080   30.5230   37.8330 C.3   186  ARG186      0.1563
     76  C         97.1960   30.7430   38.5890 C.2   186  ARG186      0.2260
     77  O         96.1420   30.8920   37.9750 O.2   186  ARG186     -0.2867
     78  CB        98.7910   29.0160   37.7980 C.3   186  ARG186      0.0307
     79  CG        99.8860   28.5540   36.8440 C.3   186  ARG186      0.0489
     80  CD       100.1600   27.0790   37.0980 C.3   186  ARG186      0.2205
     81  NE       100.4580   26.8570   38.5130 N.pl3 186  ARG186     -0.0865
     82  CZ       100.2040   25.7320   39.1810 C.cat 186  ARG186      0.5346
     83  NH1       99.6370   24.6920   38.5720 N.pl3 186  ARG186      0.1354
     84  NH2      100.5030   25.6520   40.4700 N.pl3 186  ARG186      0.1354
     85  N        108.4790   24.5390   21.5910 N.3   281  ASP281     -0.1239
     86  CA       107.4130   23.6270   21.9940 C.3   281  ASP281      0.1674
     87  C        106.0970   24.1600   21.4490 C.2   281  ASP281      0.2266
     88  O        105.7540   25.3310   21.6470 O.2   281  ASP281     -0.2867
     89  CB       107.3190   23.5230   23.5200 C.3   281  ASP281      0.1410
     90  CG       106.2100   22.5640   23.9850 C.2   281  ASP281      0.3668
     91  OD1      105.2160   22.3680   23.2530 O.co2 281  ASP281     -0.2456
     92  OD2      106.3180   22.0180   25.1010 O.co2 281  ASP281     -0.2456
     93  N        103.0200   23.8930   22.3930 N.3   283  CYS283     -0.1221
     94  CA       101.9980   24.4650   23.2770 C.3   283  CYS283      0.1808
     95  C        102.2110   25.9570   23.5180 C.2   283  CYS283      0.2601
     96  O        101.2600   26.6750   23.8080 O.2   283  CYS283     -0.2717
     97  CB       101.9210   23.7180   24.6180 C.3   283  CYS283      0.0970
     98  SG       103.3730   23.8020   25.6900 S.3   283  CYS283     -0.0800
     99  N        103.4520   26.4240   23.3800 N.am  284  TYR284     -0.1976
    100  CA       103.7440   27.8400   23.5720 C.3   284  TYR284      0.1639
    101  C        103.2160   28.6440   22.3930 C.2   284  TYR284      0.2290
    102  O        103.2430   29.8760   22.4060 O.2   284  TYR284     -0.2864
    103  CB       105.2480   28.0560   23.7460 C.3   284  TYR284      0.0560
    104  CG       105.7820   27.3960   25.0010 C.ar  284  TYR284     -0.0198
    105  CD1      106.9550   26.6460   24.9730 C.ar  284  TYR284     -0.0009
    106  CD2      105.0880   27.4930   26.2090 C.ar  284  TYR284     -0.0009
    107  CE1      107.4230   26.0010   26.1170 C.ar  284  TYR284      0.0417
    108  CE2      105.5440   26.8560   27.3600 C.ar  284  TYR284      0.0417
    109  CZ       106.7130   26.1070   27.3070 C.ar  284  TYR284      0.1957
    110  OH       107.1610   25.4440   28.4270 O.3   284  TYR284     -0.2866
    111  N        100.5180   29.9460   24.7620 N.3   287  TRP287     -0.1241
    112  CA       100.9760   30.6750   25.9460 C.3   287  TRP287      0.1605
    113  C        101.8530   31.8770   25.5950 C.2   287  TRP287      0.2264
    114  O        101.7820   32.9070   26.2600 O.2   287  TRP287     -0.2867
    115  CB       101.7400   29.7600   26.9100 C.3   287  TRP287      0.0550
    116  CG       101.0120   28.5060   27.3240 C.ar  287  TRP287      0.0003
    117  CD1      101.4110   27.2200   27.0850 C.ar  287  TRP287      0.0946
    118  CD2       99.7830   28.4120   28.0700 C.ar  287  TRP287      0.0152
    119  NE1      100.5160   26.3350   27.6330 N.ar  287  TRP287     -0.2442
    120  CE2       99.5050   27.0330   28.2440 C.ar  287  TRP287      0.0810
    121  CE3       98.8920   29.3540   28.6070 C.ar  287  TRP287      0.0012
    122  CZ2       98.3700   26.5670   28.9340 C.ar  287  TRP287      0.0191
    123  CZ3       97.7580   28.8910   29.2970 C.ar  287  TRP287      0.0001
    124  CH2       97.5120   27.5030   29.4510 C.ar  287  TRP287      0.0015
    125  N        104.2330   18.4720   21.0420 N.3   336  ASP336     -0.1239
    126  CA       105.3230   19.3620   21.4270 C.3   336  ASP336      0.1674
    127  C        106.2330   19.6790   20.2340 C.2   336  ASP336      0.2266
    128  O        106.2440   20.7960   19.7260 O.2   336  ASP336     -0.2867
    129  CB       106.1000   18.6770   22.5570 C.3   336  ASP336      0.1410
    130  CG       107.3110   19.4650   23.0260 C.2   336  ASP336      0.3668
    131  OD1      107.8400   20.3030   22.2670 O.co2 336  ASP336     -0.2456
    132  OD2      107.7530   19.2210   24.1690 O.co2 336  ASP336     -0.2456
    133  N        108.2240   13.8320   19.8110 N.3   340  LYS340     -0.1231
    134  CA       107.3590   13.7580   20.9800 C.3   340  LYS340      0.1693
    135  C        106.0430   13.1170   20.5550 C.2   340  LYS340      0.2592
    136  O        105.6590   13.1740   19.3850 O.2   340  LYS340     -0.2718
    137  CB       107.0920   15.1580   21.5480 C.3   340  LYS340      0.0285
    138  CG       108.3080   15.8160   22.1940 C.3   340  LYS340      0.0035
    139  CD       108.8030   14.9990   23.3850 C.3   340  LYS340      0.0206
    140  CE       110.0160   15.6300   24.0580 C.3   340  LYS340      0.1093
    141  NZ       109.6780   16.9010   24.7520 N.3   340  LYS340     -0.1314
    142  N        105.3520   12.4970   21.5010 N.am  341  SER341     -0.1952
    143  CA       104.0810   11.8640   21.1890 C.3   341  SER341      0.1924
    144  C        102.9270   12.8150   21.4830 C.2   341  SER341      0.2314
    145  O        103.0350   13.7140   22.3190 O.2   341  SER341     -0.2863
    146  CB       103.9170   10.5660   21.9870 C.3   341  SER341      0.2116
    147  OG       104.1230   10.7770   23.3740 O.3   341  SER341     -0.2180
    148  N         99.1480   14.2720   22.6180 N.3   343  ASP343     -0.1239
    149  CA        98.3790   14.2900   23.8550 C.3   343  ASP343      0.1674
    150  C         97.3560   15.4020   23.7010 C.2   343  ASP343      0.2266
    151  O         97.5350   16.3070   22.8850 O.2   343  ASP343     -0.2867
    152  CB        99.2660   14.4870   25.0980 C.3   343  ASP343      0.1410
    153  CG       100.0490   15.7830   25.0780 C.2   343  ASP343      0.3668
    154  OD1       99.4270   16.8600   25.0090 O.co2 343  ASP343     -0.2456
    155  OD2      101.2950   15.7190   25.1510 O.co2 343  ASP343     -0.2456
    156  N         96.6220   17.8630   25.6010 N.3   345  TYR345     -0.1227
    157  CA        97.1090   19.1630   26.0310 C.3   345  TYR345      0.1736
    158  C         97.7000   19.8980   24.8200 C.2   345  TYR345      0.2595
    159  O         97.3090   21.0300   24.5130 O.2   345  TYR345     -0.2718
    160  CB        98.1800   18.9930   27.1190 C.3   345  TYR345      0.0548
    161  CG        98.9590   20.2570   27.4180 C.ar  345  TYR345     -0.0200
    162  CD1       98.3690   21.3260   28.1060 C.ar  345  TYR345     -0.0009
    163  CD2      100.2880   20.3940   27.0010 C.ar  345  TYR345     -0.0009
    164  CE1       99.0890   22.5010   28.3710 C.ar  345  TYR345      0.0417
    165  CE2      101.0120   21.5590   27.2570 C.ar  345  TYR345      0.0417
    166  CZ       100.4040   22.6070   27.9420 C.ar  345  TYR345      0.1957
    167  OH       101.1080   23.7600   28.1720 O.3   345  TYR345     -0.2866
    168  N         98.6410   19.2580   24.1300 N.am  346  HIS346     -0.1975
    169  CA        99.2490   19.8830   22.9660 C.3   346  HIS346      0.1656
    170  C         98.2810   20.0170   21.7920 C.2   346  HIS346      0.2291
    171  O         98.4060   20.9270   20.9730 O.2   346  HIS346     -0.2864
    172  CB       100.4990   19.1220   22.5430 C.3   346  HIS346      0.0771
    173  CG       101.6450   19.3000   23.4880 C.ar  346  HIS346      0.0820
    174  ND1      101.7880   18.5520   24.6350 N.ar  346  HIS346     -0.2267
    175  CD2      102.6690   20.1870   23.4850 C.ar  346  HIS346      0.1154
    176  CE1      102.8520   18.9690   25.3010 C.ar  346  HIS346      0.1986
    177  NE2      103.4030   19.9600   24.6230 N.ar  346  HIS346     -0.2212
@<TRIPOS>BOND
     1   136   135    2
     2   128   127    2
     3   133   134    1
     4   127   126    1
     5   135   134    1
     6   135   142   am
     7   171   170    2
     8   134   137    1
     9   125   126    1
    10   143   144    1
    11   143   142    1
    12   143   146    1
    13   126   129    1
    14    87    88    2
    15    87    86    1
    16   144   145    2
    17   137   138    1
    18    85    86    1
    19   170   169    1
    20   146   147    1
    21    86    89    1
    22   138   139    1
    23   131   130   ar
    24    93    94    1
    25   101   102    2
    26   101   100    1
    27   172   169    1
    28   172   173    1
    29   129   130    1
    30   148   149    1
    31   151   150    2
    32   169   168    1
    33   130   132   ar
    34    91    90   ar
    35    94    95    1
    36    94    97    1
    37    99    95   am
    38    99   100    1
    39   139   140    1
    40   175   173   ar
    41   175   177   ar
    42   173   174   ar
    43    95    96    2
    44    89    90    1
    45   100   103    1
    46   150   149    1
    47   103   104    1
    48    32    31    2
    49   149   152    1
    50    90    92   ar
    51   140   141    1
    52   168   158   am
    53   159   158    2
    54    97    98    1
    55   177   176   ar
    56   174   176   ar
    57   111   112    1
    58   158   157    1
    59    31    30    1
    60   105   104   ar
    61   105   107   ar
    62   104   106   ar
    63   154   153   ar
    64   153   152    1
    65   153   155   ar
    66   113   112    1
    67   113   114    2
    68   156   157    1
    69   112   115    1
    70   157   160    1
    71    30    33    1
    72    30    29    1
    73   107   109   ar
    74   106   108   ar
    75    33    34    1
    76   115   116    1
    77   163   165   ar
    78   163   161   ar
    79   117   116   ar
    80   117   119   ar
    81   160   161    1
    82   165   166   ar
    83   109   108   ar
    84   109   110    1
    85   116   118   ar
    86   161   162   ar
    87    34    35   ar
    88    34    36   ar
    89   119   120   ar
    90    35    37   ar
    91   166   167    1
    92   166   164   ar
    93   118   120   ar
    94   118   121   ar
    95   162   164   ar
    96   120   122   ar
    97    36    39   ar
    98    36    38   ar
    99   121   123   ar
   100    39    41   ar
   101    37    38   ar
   102   122   124   ar
   103    38    40   ar
   104   123   124   ar
   105    18    17    2
   106    41    42   ar
   107    40    42   ar
   108    17    16    1
   109     7     6    1
   110    25    27   ar
   111    25    22   ar
   112    27    28   ar
   113    16    19    1
   114    16    15    1
   115    19    20    1
   116     6     5    1
   117     6     8    1
   118    28    26   ar
   119    22    20   ar
   120    22    24   ar
   121     5     2    1
   122    20    21   ar
   123    12    11    2
   124    24    26   ar
   125    24    23   ar
   126     2     1    1
   127     2     3    1
   128    21    23   ar
   129    11    10    1
   130     4     3    2
   131    13    10    1
   132    13    14    1
   133    10     9    1
   134    56    55    2
   135    61    60    2
   136    79    80    1
   137    79    78    1
   138    80    81    1
   139    55    54    1
   140    55    58   am
   141    59    60    1
   142    59    58    1
   143    59    62    1
   144    78    75    1
   145    75    74    1
   146    75    76    1
   147    57    54    1
   148    54    53    1
   149    77    76    2
   150    58    64    1
   151    62    63    1
   152    81    82    2
   153    83    82    1
   154    64    63    1
   155    82    84    1
   156    46    45    2
   157    51    49   ar
   158    51    52   ar
   159    49    48   ar
   160    45    44    1
   161    52    50   ar
   162    48    47    1
   163    48    50   ar
   164    47    44    1
   165    73    71   ar
   166    44    43    1
   167    71    70    1
   168    71    72   ar
   169    70    69    1
   170    69    66    1
   171    68    67    2
   172    67    66    1
   173    66    65    1
