@<TRIPOS>MOLECULE
tmp/1tn8B00.pdb
 180 177 0 0 0
SMALL
GASTEIGER

@<TRIPOS>ATOM
      1  N         93.6520   13.2870   38.1190 N.3    82  ALA82      -0.1231
      2  CA        93.2640   14.3840   38.9920 C.3    82  ALA82       0.1694
      3  C         93.1450   15.6730   38.1770 C.2    82  ALA82       0.2592
      4  O         93.1810   16.7720   38.7280 O.2    82  ALA82      -0.2718
      5  CB        94.2880   14.5520   40.1250 C.3    82  ALA82       0.0304
      6  N         93.0030   15.5150   36.8620 N.am   83  SER83      -0.1952
      7  CA        92.8670   16.6320   35.9240 C.3    83  SER83       0.1924
      8  C         91.7820   16.3390   34.8950 C.2    83  SER83       0.2314
      9  O         91.8750   16.7710   33.7490 O.2    83  SER83      -0.2863
     10  CB        94.1780   16.8670   35.1670 C.3    83  SER83       0.2116
     11  OG        95.2040   17.3280   36.0220 O.3    83  SER83      -0.2180
     12  N         90.2240   19.1980   33.0740 N.3    86  TRP86      -0.1241
     13  CA        91.1710   19.7220   32.0910 C.3    86  TRP86       0.1605
     14  C         90.9660   18.9480   30.7850 C.2    86  TRP86       0.2264
     15  O         90.9540   19.5300   29.6990 O.2    86  TRP86      -0.2867
     16  CB        92.6150   19.5220   32.5660 C.3    86  TRP86       0.0550
     17  CG        93.1930   20.6290   33.4100 C.ar   86  TRP86       0.0003
     18  CD1       93.7280   20.5060   34.6640 C.ar   86  TRP86       0.0946
     19  CD2       93.4410   21.9810   33.0030 C.ar   86  TRP86       0.0152
     20  NE1       94.3050   21.6880   35.0540 N.ar   86  TRP86      -0.2442
     21  CE2       94.1450   22.6120   34.0540 C.ar   86  TRP86       0.0810
     22  CE3       93.1420   22.7190   31.8490 C.ar   86  TRP86       0.0012
     23  CZ2       94.5590   23.9550   33.9870 C.ar   86  TRP86       0.0191
     24  CZ3       93.5520   24.0600   31.7820 C.ar   86  TRP86       0.0001
     25  CH2       94.2540   24.6590   32.8480 C.ar   86  TRP86       0.0015
     26  N         90.2870   20.6910   27.3620 N.3    90  TRP90      -0.1241
     27  CA        91.2100   20.6050   26.2290 C.3    90  TRP90       0.1605
     28  C         90.5180   20.0470   24.9940 C.2    90  TRP90       0.2264
     29  O         90.6880   20.5580   23.8840 O.2    90  TRP90      -0.2867
     30  CB        92.4140   19.7090   26.5450 C.3    90  TRP90       0.0550
     31  CG        93.3210   20.2070   27.6390 C.ar   90  TRP90       0.0003
     32  CD1       93.6480   21.5080   27.9130 C.ar   90  TRP90       0.0946
     33  CD2       94.0580   19.4010   28.5680 C.ar   90  TRP90       0.0152
     34  NE1       94.5430   21.5590   28.9530 N.ar   90  TRP90      -0.2442
     35  CE2       94.8150   20.2840   29.3760 C.ar   90  TRP90       0.0810
     36  CE3       94.1580   18.0180   28.7960 C.ar   90  TRP90       0.0012
     37  CZ2       95.6650   19.8310   30.3980 C.ar   90  TRP90       0.0191
     38  CZ3       95.0050   17.5620   29.8140 C.ar   90  TRP90       0.0001
     39  CH2       95.7480   18.4710   30.6010 C.ar   90  TRP90       0.0015
     40  N         90.1620   22.5360   43.4810 N.3   133  HIS133     -0.1241
     41  CA        91.4770   23.0740   43.1360 C.3   133  HIS133      0.1621
     42  C         91.2530   24.0920   42.0020 C.2   133  HIS133      0.2264
     43  O         90.4820   23.8270   41.0750 O.2   133  HIS133     -0.2867
     44  CB        92.3500   21.8920   42.6800 C.3   133  HIS133      0.0745
     45  CG        93.7700   22.2390   42.3600 C.ar  133  HIS133      0.0817
     46  ND1       94.1250   23.0420   41.2960 N.ar  133  HIS133     -0.2268
     47  CD2       94.9340   21.8200   42.9190 C.ar  133  HIS133      0.1154
     48  CE1       95.4420   23.1010   41.2120 C.ar  133  HIS133      0.1986
     49  NE2       95.9570   22.3680   42.1850 N.ar  133  HIS133     -0.2212
     50  N         92.8930   24.9320   39.3340 N.3   135  ALA135     -0.1231
     51  CA        93.1770   24.5700   37.9480 C.3   135  ALA135      0.1679
     52  C         91.9590   23.8290   37.3650 C.2   135  ALA135      0.2434
     53  O         91.4390   24.2100   36.3020 O.2   135  ALA135     -0.2733
     54  CB        94.4540   23.7170   37.8610 C.3   135  ALA135      0.0304
     55  N         91.4970   22.7510   38.0360 N.am  136  PRO136     -0.2729
     56  CA        90.3200   22.0700   37.4720 C.3   136  PRO136      0.1401
     57  C         89.0530   22.9530   37.5460 C.2   136  PRO136      0.2269
     58  O         88.1060   22.7570   36.7820 O.2   136  PRO136     -0.2865
     59  CB        90.2100   20.7830   38.3080 C.3   136  PRO136      0.0296
     60  CG        90.9690   21.1130   39.5920 C.3   136  PRO136      0.0237
     61  CD        92.1370   21.9220   39.0730 C.3   136  PRO136      0.0939
     62  N        100.0520   25.1090   47.0390 N.3   182  GLU182     -0.1245
     63  CA       101.0600   26.0760   46.6080 C.3   182  GLU182      0.1567
     64  C        100.4990   27.3800   46.0170 C.2   182  GLU182      0.2260
     65  O         99.3410   27.4520   45.5990 O.2   182  GLU182     -0.2867
     66  CB       102.0020   25.4280   45.5780 C.3   182  GLU182      0.0388
     67  CG       101.3840   25.2200   44.2020 C.3   182  GLU182      0.1160
     68  CD       100.5840   23.9230   44.0830 C.2   182  GLU182      0.3649
     69  OE1      100.1830   23.3370   45.1160 O.co2 182  GLU182     -0.2457
     70  OE2      100.3440   23.4940   42.9370 O.co2 182  GLU182     -0.2457
     71  N         99.5050   31.2550   38.4680 N.3   186  ARG186     -0.1245
     72  CA        98.4130   30.5210   37.8280 C.3   186  ARG186      0.1563
     73  C         97.1020   30.7570   38.5840 C.2   186  ARG186      0.2260
     74  O         96.0480   30.9130   37.9690 O.2   186  ARG186     -0.2867
     75  CB        98.6720   29.0060   37.8230 C.3   186  ARG186      0.0307
     76  CG        99.7420   28.4820   36.8730 C.3   186  ARG186      0.0489
     77  CD        99.9560   26.9970   37.1540 C.3   186  ARG186      0.2205
     78  NE       100.3330   26.7930   38.5490 N.pl3 186  ARG186     -0.0865
     79  CZ       100.1590   25.6640   39.2360 C.cat 186  ARG186      0.5346
     80  NH1       99.6050   24.6000   38.6670 N.pl3 186  ARG186      0.1354
     81  NH2      100.5350   25.5980   40.5040 N.pl3 186  ARG186      0.1354
     82  N        108.4870   24.4710   21.6030 N.3   281  ASP281     -0.1239
     83  CA       107.4490   23.5380   22.0120 C.3   281  ASP281      0.1674
     84  C        106.1130   24.0820   21.5390 C.2   281  ASP281      0.2266
     85  O        105.7650   25.2420   21.7930 O.2   281  ASP281     -0.2867
     86  CB       107.4510   23.3580   23.5420 C.3   281  ASP281      0.1410
     87  CG       106.2640   22.5180   24.0500 C.2   281  ASP281      0.3668
     88  OD1      106.3080   22.0670   25.2170 O.co2 281  ASP281     -0.2456
     89  OD2      105.2780   22.3180   23.3040 O.co2 281  ASP281     -0.2456
     90  N        103.0150   23.8530   22.5130 N.3   283  CYS283     -0.1221
     91  CA       102.0030   24.4520   23.3880 C.3   283  CYS283      0.1808
     92  C        102.2270   25.9480   23.6170 C.2   283  CYS283      0.2601
     93  O        101.2880   26.6760   23.9220 O.2   283  CYS283     -0.2717
     94  CB       101.9200   23.7250   24.7330 C.3   283  CYS283      0.0970
     95  SG       103.3880   23.7780   25.7570 S.3   283  CYS283     -0.0800
     96  N        103.4680   26.4010   23.4580 N.am  284  TYR284     -0.1976
     97  CA       103.7830   27.8100   23.6400 C.3   284  TYR284      0.1639
     98  C        103.2580   28.6040   22.4580 C.2   284  TYR284      0.2290
     99  O        103.2950   29.8360   22.4610 O.2   284  TYR284     -0.2864
    100  CB       105.2920   28.0040   23.8060 C.3   284  TYR284      0.0560
    101  CG       105.8120   27.3780   25.0880 C.ar  284  TYR284     -0.0198
    102  CD1      106.9530   26.5780   25.0870 C.ar  284  TYR284     -0.0009
    103  CD2      105.1310   27.5530   26.2950 C.ar  284  TYR284     -0.0009
    104  CE1      107.3980   25.9550   26.2600 C.ar  284  TYR284      0.0417
    105  CE2      105.5660   26.9460   27.4690 C.ar  284  TYR284      0.0417
    106  CZ       106.6990   26.1430   27.4450 C.ar  284  TYR284      0.1957
    107  OH       107.1120   25.5110   28.5920 O.3   284  TYR284     -0.2866
    108  N        100.5270   29.9090   24.7660 N.3   287  TRP287     -0.1241
    109  CA       100.9850   30.6470   25.9460 C.3   287  TRP287      0.1605
    110  C        101.8390   31.8720   25.5960 C.2   287  TRP287      0.2264
    111  O        101.6990   32.9200   26.2270 O.2   287  TRP287     -0.2867
    112  CB       101.7770   29.7410   26.9000 C.3   287  TRP287      0.0550
    113  CG       101.0560   28.4790   27.3340 C.ar  287  TRP287      0.0003
    114  CD1      101.4830   27.1920   27.1400 C.ar  287  TRP287      0.0946
    115  CD2       99.8080   28.3820   28.0550 C.ar  287  TRP287      0.0152
    116  NE1      100.5880   26.3060   27.6900 N.ar  287  TRP287     -0.2442
    117  CE2       99.5520   27.0010   28.2580 C.ar  287  TRP287      0.0810
    118  CE3       98.8880   29.3240   28.5450 C.ar  287  TRP287      0.0012
    119  CZ2       98.4090   26.5320   28.9340 C.ar  287  TRP287      0.0191
    120  CZ3       97.7420   28.8590   29.2220 C.ar  287  TRP287      0.0001
    121  CH2       97.5170   27.4690   29.4080 C.ar  287  TRP287      0.0015
    122  N        104.2430   18.4840   21.0830 N.3   336  ASP336     -0.1239
    123  CA       105.3110   19.3950   21.4960 C.3   336  ASP336      0.1674
    124  C        106.2280   19.6610   20.3100 C.2   336  ASP336      0.2266
    125  O        106.2400   20.7530   19.7550 O.2   336  ASP336     -0.2867
    126  CB       106.0670   18.7380   22.6730 C.3   336  ASP336      0.1410
    127  CG       107.3650   19.4500   23.0440 C.2   336  ASP336      0.3668
    128  OD1      107.8680   20.2890   22.2720 O.co2 336  ASP336     -0.2456
    129  OD2      107.9020   19.1430   24.1280 O.co2 336  ASP336     -0.2456
    130  N        108.0520   13.6430   19.8700 N.3   340  LYS340     -0.1245
    131  CA       107.2650   13.5840   21.0960 C.3   340  LYS340      0.1561
    132  C        105.9370   12.9320   20.7430 C.2   340  LYS340      0.2260
    133  O        105.5090   12.9550   19.5890 O.2   340  LYS340     -0.2867
    134  CB       107.0020   14.9880   21.6430 C.3   340  LYS340      0.0271
    135  CG       108.2490   15.7460   22.0300 C.3   340  LYS340      0.0035
    136  CD       108.8490   15.1870   23.3050 C.3   340  LYS340      0.0206
    137  CE       110.0380   16.0210   23.7530 C.3   340  LYS340      0.1093
    138  NZ       110.4740   15.6610   25.1300 N.3   340  LYS340     -0.1314
    139  N         99.1200   14.1900   22.7890 N.3   343  ASP343     -0.1239
    140  CA        98.3580   14.2010   24.0250 C.3   343  ASP343      0.1674
    141  C         97.3350   15.3110   23.8330 C.2   343  ASP343      0.2266
    142  O         97.5150   16.1740   22.9760 O.2   343  ASP343     -0.2867
    143  CB        99.2570   14.4430   25.2460 C.3   343  ASP343      0.1410
    144  CG        99.8750   15.8260   25.2660 C.2   343  ASP343      0.3668
    145  OD1       99.1250   16.8160   25.3330 O.co2 343  ASP343     -0.2456
    146  OD2      101.1160   15.9170   25.2280 O.co2 343  ASP343     -0.2456
    147  N         96.5900   17.8490   25.7190 N.3   345  TYR345     -0.1227
    148  CA        97.0580   19.1470   26.1650 C.3   345  TYR345      0.1736
    149  C         97.6780   19.8710   24.9690 C.2   345  TYR345      0.2595
    150  O         97.2830   20.9910   24.6330 O.2   345  TYR345     -0.2718
    151  CB        98.1040   18.9830   27.2690 C.3   345  TYR345      0.0548
    152  CG        98.9240   20.2330   27.5240 C.ar  345  TYR345     -0.0200
    153  CD1       98.3730   21.3360   28.1860 C.ar  345  TYR345     -0.0009
    154  CD2      100.2490   20.3170   27.0940 C.ar  345  TYR345     -0.0009
    155  CE1       99.1300   22.4940   28.4160 C.ar  345  TYR345      0.0417
    156  CE2      101.0080   21.4670   27.3150 C.ar  345  TYR345      0.0417
    157  CZ       100.4390   22.5500   27.9780 C.ar  345  TYR345      0.1957
    158  OH       101.1780   23.6840   28.1920 O.3   345  TYR345     -0.2866
    159  N         98.6510   19.2310   24.3270 N.am  346  HIS346     -0.1975
    160  CA        99.2880   19.8340   23.1710 C.3   346  HIS346      0.1656
    161  C         98.3370   19.9550   21.9830 C.2   346  HIS346      0.2291
    162  O         98.5090   20.8330   21.1330 O.2   346  HIS346     -0.2864
    163  CB       100.5290   19.0490   22.7710 C.3   346  HIS346      0.0771
    164  CG       101.6810   19.2450   23.7050 C.ar  346  HIS346      0.0820
    165  ND1      101.8540   18.4930   24.8450 N.ar  346  HIS346     -0.2267
    166  CD2      102.6920   20.1480   23.6910 C.ar  346  HIS346      0.1154
    167  CE1      102.9200   18.9200   25.4960 C.ar  346  HIS346      0.1986
    168  NE2      103.4480   19.9250   24.8180 N.ar  346  HIS346     -0.2212
    169  N         96.3960   23.2760   22.7870 N.3   349  TYR349     -0.1241
    170  CA        97.1770   24.4910   22.6320 C.3   349  TYR349      0.1605
    171  C         97.8530   24.7050   21.2990 C.2   349  TYR349      0.2264
    172  O         98.0670   25.8530   20.9060 O.2   349  TYR349     -0.2867
    173  CB        98.1560   24.6380   23.8010 C.3   349  TYR349      0.0534
    174  CG        97.3950   24.8700   25.0870 C.ar  349  TYR349     -0.0201
    175  CD1       97.1950   23.8400   26.0050 C.ar  349  TYR349     -0.0009
    176  CD2       96.7800   26.0990   25.3360 C.ar  349  TYR349     -0.0009
    177  CE1       96.3930   24.0280   27.1410 C.ar  349  TYR349      0.0417
    178  CE2       95.9880   26.2960   26.4560 C.ar  349  TYR349      0.0417
    179  CZ        95.7960   25.2610   27.3540 C.ar  349  TYR349      0.1957
    180  OH        95.0110   25.4710   28.4670 O.3   349  TYR349     -0.2866
@<TRIPOS>BOND
     1   133   132    2
     2   125   124    2
     3   130   131    1
     4   124   123    1
     5   132   131    1
     6   172   171    2
     7   122   123    1
     8   131   134    1
     9   162   161    2
    10   171   170    1
    11   123   126    1
    12    84    85    2
    13    84    83    1
    14    82    83    1
    15   134   135    1
    16   161   160    1
    17    83    86    1
    18   135   136    1
    19   128   127   ar
    20    98    99    2
    21    98    97    1
    22    90    91    1
    23   170   169    1
    24   170   173    1
    25   126   127    1
    26   163   160    1
    27   163   164    1
    28   139   140    1
    29   142   141    2
    30   127   129   ar
    31   160   159    1
    32    89    87   ar
    33   136   137    1
    34    91    92    1
    35    91    94    1
    36    96    92   am
    37    96    97    1
    38    86    87    1
    39    92    93    2
    40    97   100    1
    41   166   164   ar
    42   166   168   ar
    43   164   165   ar
    44   137   138    1
    45   173   174    1
    46   100   101    1
    47   141   140    1
    48    29    28    2
    49   140   143    1
    50    87    88   ar
    51   159   149   am
    52   150   149    2
    53    94    95    1
    54   108   109    1
    55   168   167   ar
    56   165   167   ar
    57   149   148    1
    58    28    27    1
    59   102   101   ar
    60   102   104   ar
    61   174   176   ar
    62   174   175   ar
    63   101   103   ar
    64   146   144   ar
    65   143   144    1
    66   144   145   ar
    67   176   178   ar
    68   110   109    1
    69   110   111    2
    70   147   148    1
    71   109   112    1
    72   175   177   ar
    73   148   151    1
    74    27    30    1
    75    27    26    1
    76   104   106   ar
    77   103   105   ar
    78   178   179   ar
    79    30    31    1
    80   112   113    1
    81   154   156   ar
    82   154   152   ar
    83   114   113   ar
    84   114   116   ar
    85   177   179   ar
    86   151   152    1
    87   156   157   ar
    88   113   115   ar
    89   179   180    1
    90   106   105   ar
    91   106   107    1
    92   152   153   ar
    93    31    32   ar
    94    31    33   ar
    95   116   117   ar
    96    32    34   ar
    97   157   158    1
    98   157   155   ar
    99   115   117   ar
   100   115   118   ar
   101   153   155   ar
   102   117   119   ar
   103   118   120   ar
   104    33    36   ar
   105    33    35   ar
   106    36    38   ar
   107   119   121   ar
   108    34    35   ar
   109   120   121   ar
   110    35    37   ar
   111    15    14    2
   112    38    39   ar
   113    37    39   ar
   114    14    13    1
   115    24    22   ar
   116    24    25   ar
   117    22    19   ar
   118    13    16    1
   119    13    12    1
   120    16    17    1
   121    25    23   ar
   122    19    17   ar
   123    19    21   ar
   124    17    18   ar
   125     9     8    2
   126    23    21   ar
   127    21    20   ar
   128    18    20   ar
   129     8     7    1
   130    10     7    1
   131    10    11    1
   132     7     6    1
   133    53    52    2
   134    58    57    2
   135     6     3   am
   136    76    77    1
   137    76    75    1
   138    77    78    1
   139    52    51    1
   140    52    55   am
   141    56    57    1
   142    56    55    1
   143    56    59    1
   144    75    72    1
   145    72    71    1
   146    72    73    1
   147    54    51    1
   148    51    50    1
   149    74    73    2
   150    55    61    1
   151     1     2    1
   152     3     4    2
   153     3     2    1
   154    59    60    1
   155    78    79    2
   156    80    79    1
   157     2     5    1
   158    61    60    1
   159    79    81    1
   160    43    42    2
   161    48    46   ar
   162    48    49   ar
   163    46    45   ar
   164    42    41    1
   165    49    47   ar
   166    45    44    1
   167    45    47   ar
   168    44    41    1
   169    70    68   ar
   170    41    40    1
   171    68    67    1
   172    68    69   ar
   173    67    66    1
   174    66    63    1
   175    65    64    2
   176    64    63    1
   177    63    62    1
