@<TRIPOS>MOLECULE
tmp/1tnbB00.pdb
 229 223 0 0 0
SMALL
GASTEIGER

@<TRIPOS>ATOM
      1  N         20.1030   77.0270   59.2300 N.3    23  TYR23      -0.1241
      2  CA        21.4350   77.5580   59.5380 C.3    23  TYR23       0.1605
      3  C         22.4460   77.1610   58.4790 C.2    23  TYR23       0.2264
      4  O         23.6490   77.1510   58.7210 O.2    23  TYR23      -0.2867
      5  CB        21.9020   77.0580   60.9200 C.3    23  TYR23       0.0534
      6  CG        20.8980   77.3550   62.0220 C.ar   23  TYR23      -0.0201
      7  CD1       19.6430   76.7210   62.0360 C.ar   23  TYR23      -0.0009
      8  CD2       21.1520   78.3380   62.9890 C.ar   23  TYR23      -0.0009
      9  CE1       18.6590   77.0630   62.9740 C.ar   23  TYR23       0.0417
     10  CE2       20.1680   78.6920   63.9400 C.ar   23  TYR23       0.0417
     11  CZ        18.9170   78.0500   63.9200 C.ar   23  TYR23       0.1957
     12  OH        17.9140   78.4190   64.8030 O.3    23  TYR23      -0.2866
     13  N         23.5320   78.7270   56.0930 N.3    25  SER25      -0.1202
     14  CA        24.4430   79.8140   55.7400 C.3    25  SER25       0.2020
     15  C         25.6520   79.9120   56.6610 C.2    25  SER25       0.2618
     16  O         26.4710   80.8260   56.5450 O.2    25  SER25      -0.2717
     17  CB        23.6990   81.1410   55.7410 C.3    25  SER25       0.2103
     18  OG        23.2310   81.4260   57.0350 O.3    25  SER25      -0.2182
     19  N         25.7600   78.9680   57.5830 N.am   26  LEU26      -0.1979
     20  CA        26.8830   78.9430   58.4990 C.3    26  LEU26       0.1596
     21  C         27.7470   77.7380   58.1670 C.2    26  LEU26       0.2287
     22  O         28.7600   77.5080   58.8180 O.2    26  LEU26      -0.2864
     23  CB        26.3940   78.8320   59.9410 C.3    26  LEU26       0.0297
     24  CG        25.5910   79.9950   60.5240 C.3    26  LEU26       0.0022
     25  CD1       24.9970   79.5490   61.8560 C.3    26  LEU26       0.0001
     26  CD2       26.4800   81.2270   60.6890 C.3    26  LEU26       0.0001
     27  N         31.3510   78.0450   58.1690 N.3    29  SER29      -0.1217
     28  CA        31.8330   78.6520   59.4060 C.3    29  SER29       0.1889
     29  C         31.4360   77.7820   60.5810 C.2    29  SER29       0.2288
     30  O         31.3970   78.2410   61.7240 O.2    29  SER29      -0.2866
     31  CB        31.2160   80.0360   59.5930 C.3    29  SER29       0.2089
     32  OG        31.6030   80.8880   58.5410 O.3    29  SER29      -0.2183
     33  N         33.4650   77.8190   63.7430 N.3    32  THR32      -0.1218
     34  CA        33.3240   78.9430   64.6650 C.3    32  THR32       0.1862
     35  C         32.0870   78.7260   65.5390 C.2    32  THR32       0.2287
     36  O         32.0080   79.2230   66.6600 O.2    32  THR32      -0.2866
     37  CB        33.1920   80.3030   63.9300 C.3    32  THR32       0.1770
     38  OG1       31.8910   80.4170   63.3440 O.3    32  THR32      -0.2211
     39  CG2       34.2470   80.4300   62.8470 C.3    32  THR32       0.0375
     40  N         32.0090   78.5900   69.6530 N.3    36  PHE36      -0.1241
     41  CA        31.0520   79.2610   70.5180 C.3    36  PHE36       0.1605
     42  C         30.4700   78.2920   71.5390 C.2    36  PHE36       0.2264
     43  O         30.3130   78.6190   72.7180 O.2    36  PHE36      -0.2867
     44  CB        29.9130   79.8390   69.6780 C.3    36  PHE36       0.0534
     45  CG        30.2970   81.0460   68.8760 C.ar   36  PHE36      -0.0203
     46  CD1       29.6450   81.3340   67.6860 C.ar   36  PHE36      -0.0042
     47  CD2       31.2740   81.9250   69.3310 C.ar   36  PHE36      -0.0042
     48  CE1       29.9580   82.4820   66.9540 C.ar   36  PHE36      -0.0003
     49  CE2       31.5940   83.0800   68.6050 C.ar   36  PHE36      -0.0003
     50  CZ        30.9310   83.3550   67.4160 C.ar   36  PHE36      -0.0000
     51  N         41.0560   78.9010   56.1210 N.3   104  HIS104     -0.1241
     52  CA        40.3960   80.1880   56.2980 C.3   104  HIS104      0.1621
     53  C         40.9120   80.7140   57.6280 C.2   104  HIS104      0.2264
     54  O         40.7630   80.0600   58.6670 O.2   104  HIS104     -0.2867
     55  CB        38.8820   80.0010   56.3320 C.3   104  HIS104      0.0745
     56  CG        38.1140   81.2790   56.4590 C.ar  104  HIS104      0.0817
     57  ND1       38.0400   81.9910   57.6370 N.ar  104  HIS104     -0.2268
     58  CD2       37.3800   81.9690   55.5550 C.ar  104  HIS104      0.1154
     59  CE1       37.2940   83.0650   57.4520 C.ar  104  HIS104      0.1986
     60  NE2       36.8820   83.0760   56.1960 N.ar  104  HIS104     -0.2212
     61  N         39.9730   82.6190   59.9500 N.3   106  ALA106     -0.1231
     62  CA        39.1050   82.5710   61.1210 C.3   106  ALA106      0.1694
     63  C         38.8870   81.1450   61.5950 C.2   106  ALA106      0.2591
     64  O         38.6300   80.9030   62.7700 O.2   106  ALA106     -0.2718
     65  CB        37.7780   83.2210   60.8120 C.3   106  ALA106      0.0304
     66  N         38.9950   80.1980   60.6720 N.am  107  MET107     -0.1979
     67  CA        38.8110   78.7910   61.0020 C.3   107  MET107      0.1605
     68  C         40.0850   78.2020   61.6070 C.2   107  MET107      0.2287
     69  O         40.0270   77.3150   62.4680 O.2   107  MET107     -0.2864
     70  CB        38.4000   78.0200   59.7540 C.3   107  MET107      0.0413
     71  CG        37.1930   78.6230   59.0600 C.3   107  MET107      0.0598
     72  SD        35.8360   79.0210   60.1920 S.3   107  MET107     -0.1393
     73  CE        35.1770   80.4820   59.4090 C.3   107  MET107      0.0692
     74  N         42.0800   79.9490   63.3630 N.3   109  TYR109     -0.1227
     75  CA        42.0470   80.5300   64.6920 C.3   109  TYR109      0.1736
     76  C         41.1090   79.7370   65.6000 C.2   109  TYR109      0.2596
     77  O         41.5440   79.1800   66.6030 O.2   109  TYR109     -0.2718
     78  CB        41.6220   82.0050   64.6100 C.3   109  TYR109      0.0548
     79  CG        40.9470   82.5370   65.8560 C.ar  109  TYR109     -0.0200
     80  CD1       41.4760   82.2910   67.1310 C.ar  109  TYR109     -0.0009
     81  CD2       39.7610   83.2640   65.7670 C.ar  109  TYR109     -0.0009
     82  CE1       40.8340   82.7480   68.2760 C.ar  109  TYR109      0.0417
     83  CE2       39.1160   83.7250   66.9050 C.ar  109  TYR109      0.0417
     84  CZ        39.6550   83.4640   68.1530 C.ar  109  TYR109      0.1957
     85  OH        39.0040   83.9170   69.2730 O.3   109  TYR109     -0.2866
     86  N         39.8270   79.6760   65.2510 N.am  110  THR110     -0.1953
     87  CA        38.8680   78.9410   66.0760 C.3   110  THR110      0.1897
     88  C         39.2130   77.4610   66.1810 C.2   110  THR110      0.2313
     89  O         38.9070   76.8260   67.1870 O.2   110  THR110     -0.2863
     90  CB        37.4280   79.0830   65.5440 C.3   110  THR110      0.1794
     91  OG1       37.4240   78.9100   64.1230 O.3   110  THR110     -0.2208
     92  CG2       36.8640   80.4440   65.9030 C.3   110  THR110      0.0378
     93  N         37.7610   89.9830   51.2430 N.3   152  GLU152     -0.1245
     94  CA        37.8450   91.3440   51.7430 C.3   152  GLU152      0.1567
     95  C         38.9140   91.2920   52.8360 C.2   152  GLU152      0.2260
     96  O         39.2910   90.2050   53.2920 O.2   152  GLU152     -0.2867
     97  CB        36.4980   91.7870   52.3380 C.3   152  GLU152      0.0388
     98  CG        36.1090   91.0960   53.6490 C.3   152  GLU152      0.1160
     99  CD        35.5460   89.6870   53.4680 C.2   152  GLU152      0.3649
    100  OE1       35.7170   89.0850   52.3840 O.co2 152  GLU152     -0.2457
    101  OE2       34.9350   89.1730   54.4290 O.co2 152  GLU152     -0.2457
    102  N         39.1070   92.4050   61.4600 N.3   156  ARG156     -0.1231
    103  CA        38.6630   91.0970   61.9320 C.3   156  ARG156      0.1694
    104  C         39.7680   90.0660   61.7590 C.2   156  ARG156      0.2592
    105  O         40.0960   89.3200   62.6760 O.2   156  ARG156     -0.2718
    106  CB        37.4470   90.6080   61.1450 C.3   156  ARG156      0.0321
    107  CG        36.1470   91.3220   61.4040 C.3   156  ARG156      0.0489
    108  CD        35.0830   90.7490   60.4890 C.3   156  ARG156      0.2205
    109  NE        35.4350   90.9450   59.0840 N.pl3 156  ARG156     -0.0865
    110  CZ        35.0560   90.1440   58.0910 C.cat 156  ARG156      0.5346
    111  NH1       34.3090   89.0790   58.3430 N.pl3 156  ARG156      0.1354
    112  NH2       35.4260   90.4050   56.8420 N.pl3 156  ARG156      0.1354
    113  N         40.3430   90.0320   60.5670 N.am  157  PHE157     -0.1976
    114  CA        41.3750   89.0630   60.2590 C.3   157  PHE157      0.1639
    115  C         42.7160   89.3760   60.8980 C.2   157  PHE157      0.2290
    116  O         43.5440   88.4850   61.0730 O.2   157  PHE157     -0.2864
    117  CB        41.4650   88.9190   58.7340 C.3   157  PHE157      0.0560
    118  CG        40.1490   88.5160   58.0990 C.ar  157  PHE157     -0.0200
    119  CD1       39.7940   88.9640   56.8300 C.ar  157  PHE157     -0.0042
    120  CD2       39.2370   87.7210   58.8030 C.ar  157  PHE157     -0.0042
    121  CE1       38.5480   88.6300   56.2700 C.ar  157  PHE157     -0.0003
    122  CE2       37.9950   87.3850   58.2570 C.ar  157  PHE157     -0.0003
    123  CZ        37.6490   87.8420   56.9880 C.ar  157  PHE157     -0.0000
    124  N         42.5010   87.6450   64.0620 N.3   160  CYS160     -0.1235
    125  CA        42.6270   86.2100   63.8460 C.3   160  CYS160      0.1677
    126  C         44.0980   85.8370   63.7350 C.2   160  CYS160      0.2270
    127  O         44.5570   84.8740   64.3590 O.2   160  CYS160     -0.2867
    128  CB        41.9000   85.7840   62.5620 C.3   160  CYS160      0.0956
    129  SG        40.1040   85.7680   62.6500 S.3   160  CYS160     -0.0801
    130  N         23.4730   95.9370   71.9100 N.3   252  ASP252     -0.1239
    131  CA        23.4610   94.5720   71.4100 C.3   252  ASP252      0.1674
    132  C         24.2760   93.7440   72.4130 C.2   252  ASP252      0.2266
    133  O         25.4250   94.0730   72.7190 O.2   252  ASP252     -0.2867
    134  CB        24.1140   94.5720   70.0170 C.3   252  ASP252      0.1410
    135  CG        24.3620   93.1750   69.4590 C.2   252  ASP252      0.3668
    136  OD1       24.4550   92.1980   70.2380 O.co2 252  ASP252     -0.2456
    137  OD2       24.4950   93.0670   68.2210 O.co2 252  ASP252     -0.2456
    138  N         26.1650   91.1260   72.4090 N.3   254  CYS254     -0.1221
    139  CA        27.5500   90.7530   72.1360 C.3   254  CYS254      0.1808
    140  C         28.5710   91.8420   72.4150 C.2   254  CYS254      0.2601
    141  O         29.7420   91.5480   72.6490 O.2   254  CYS254     -0.2717
    142  CB        27.7110   90.2160   70.7010 C.3   254  CYS254      0.0970
    143  SG        27.4300   91.3770   69.3530 S.3   254  CYS254     -0.0800
    144  N         28.1380   93.0970   72.4220 N.am  255  TYR255     -0.1976
    145  CA        29.0740   94.1840   72.6890 C.3   255  TYR255      0.1639
    146  C         29.4820   94.2680   74.1500 C.2   255  TYR255      0.2290
    147  O         30.4470   94.9620   74.4950 O.2   255  TYR255     -0.2864
    148  CB        28.5040   95.5040   72.1750 C.3   255  TYR255      0.0560
    149  CG        28.5980   95.5290   70.6740 C.ar  255  TYR255     -0.0198
    150  CD1       29.8310   95.7170   70.0460 C.ar  255  TYR255     -0.0009
    151  CD2       27.4960   95.2020   69.8810 C.ar  255  TYR255     -0.0009
    152  CE1       29.9650   95.5630   68.6770 C.ar  255  TYR255      0.0417
    153  CE2       27.6210   95.0430   68.5080 C.ar  255  TYR255      0.0417
    154  CZ        28.8570   95.2200   67.9130 C.ar  255  TYR255      0.1957
    155  OH        28.9940   95.0070   66.5590 O.3   255  TYR255     -0.2866
    156  N         32.6400   92.5100   73.3170 N.3   258  TRP258     -0.1241
    157  CA        33.4850   93.2850   72.4080 C.3   258  TRP258      0.1605
    158  C         34.0370   94.5450   73.0920 C.2   258  TRP258      0.2264
    159  O         35.2550   94.7420   73.1600 O.2   258  TRP258     -0.2867
    160  CB        32.7040   93.6870   71.1520 C.3   258  TRP258      0.0550
    161  CG        32.2630   92.5470   70.2760 C.ar  258  TRP258      0.0003
    162  CD1       30.9970   92.3210   69.8030 C.ar  258  TRP258      0.0946
    163  CD2       33.0830   91.5100   69.7230 C.ar  258  TRP258      0.0152
    164  NE1       30.9800   91.2140   68.9930 N.ar  258  TRP258     -0.2442
    165  CE2       32.2460   90.6940   68.9240 C.ar  258  TRP258      0.0810
    166  CE3       34.4440   91.1900   69.8210 C.ar  258  TRP258      0.0012
    167  CZ2       32.7240   89.5770   68.2260 C.ar  258  TRP258      0.0191
    168  CZ3       34.9240   90.0710   69.1210 C.ar  258  TRP258      0.0001
    169  CH2       34.0600   89.2810   68.3350 C.ar  258  TRP258      0.0015
    170  N         20.5770   89.1010   70.6540 N.3   294  LYS294     -0.1231
    171  CA        21.1970   90.4170   70.6570 C.3   294  LYS294      0.1693
    172  C         20.2950   91.4100   71.3770 C.2   294  LYS294      0.2592
    173  O         20.7750   92.3260   72.0470 O.2   294  LYS294     -0.2718
    174  CB        21.5040   90.8960   69.2290 C.3   294  LYS294      0.0285
    175  CG        20.3100   91.3740   68.4310 C.3   294  LYS294      0.0035
    176  CD        20.6830   91.6470   66.9710 C.3   294  LYS294      0.0206
    177  CE        21.6160   92.8380   66.8150 C.3   294  LYS294      0.1093
    178  NZ        21.9060   93.1060   65.3750 N.3   294  LYS294     -0.1314
    179  N         18.9870   91.2130   71.2520 N.am  295  TRP295     -0.1976
    180  CA        18.0250   92.0960   71.9010 C.3   295  TRP295      0.1640
    181  C         17.0080   91.2830   72.6670 C.2   295  TRP295      0.2290
    182  O         16.7960   90.1100   72.3670 O.2   295  TRP295     -0.2864
    183  CB        17.2670   92.9230   70.8740 C.3   295  TRP295      0.0576
    184  CG        18.1190   93.7500   69.9950 C.ar  295  TRP295      0.0006
    185  CD1       19.2120   94.4730   70.3600 C.ar  295  TRP295      0.0946
    186  CD2       17.9100   94.0050   68.6070 C.ar  295  TRP295      0.0152
    187  NE1       19.6990   95.1680   69.2810 N.ar  295  TRP295     -0.2442
    188  CE2       18.9140   94.8990   68.1910 C.ar  295  TRP295      0.0810
    189  CE3       16.9660   93.5680   67.6730 C.ar  295  TRP295      0.0012
    190  CZ2       19.0040   95.3640   66.8820 C.ar  295  TRP295      0.0191
    191  CZ3       17.0540   94.0300   66.3710 C.ar  295  TRP295      0.0001
    192  CH2       18.0680   94.9190   65.9880 C.ar  295  TRP295      0.0015
    193  N         21.0700   82.7000   69.6730 N.3   301  ASP301     -0.1239
    194  CA        21.9660   81.9990   68.7670 C.3   301  ASP301      0.1674
    195  C         23.2860   81.7200   69.4820 C.2   301  ASP301      0.2266
    196  O         23.5420   82.2660   70.5610 O.2   301  ASP301     -0.2867
    197  CB        22.2070   82.8040   67.4840 C.3   301  ASP301      0.1410
    198  CG        22.7050   84.2180   67.7460 C.2   301  ASP301      0.3668
    199  OD1       23.7070   84.4030   68.4800 O.co2 301  ASP301     -0.2456
    200  OD2       22.0940   85.1540   67.1960 O.co2 301  ASP301     -0.2456
    201  N         26.3530   82.6560   68.8370 N.3   303  LEU303     -0.1231
    202  CA        27.1880   83.8370   69.0100 C.3   303  LEU303      0.1693
    203  C         26.7890   84.6660   70.2240 C.2   303  LEU303      0.2592
    204  O         27.6190   84.9380   71.0960 O.2   303  LEU303     -0.2718
    205  CB        27.1650   84.7010   67.7440 C.3   303  LEU303      0.0284
    206  CG        28.0800   85.9320   67.6900 C.3   303  LEU303      0.0019
    207  CD1       28.4800   86.1940   66.2580 C.3   303  LEU303      0.0001
    208  CD2       27.3860   87.1460   68.2840 C.3   303  LEU303      0.0001
    209  N         25.5270   85.0590   70.3040 N.am  304  HIS304     -0.1976
    210  CA        25.1070   85.8660   71.4360 C.3   304  HIS304      0.1656
    211  C         25.0410   85.0790   72.7380 C.2   304  HIS304      0.2291
    212  O         25.1910   85.6440   73.8270 O.2   304  HIS304     -0.2864
    213  CB        23.7870   86.5730   71.1220 C.3   304  HIS304      0.0771
    214  CG        23.9180   87.5930   70.0340 C.ar  304  HIS304      0.0820
    215  ND1       23.8070   87.2730   68.6970 N.ar  304  HIS304     -0.2267
    216  CD2       24.2680   88.9010   70.0770 C.ar  304  HIS304      0.1154
    217  CE1       24.0870   88.3370   67.9650 C.ar  304  HIS304      0.1986
    218  NE2       24.3700   89.3380   68.7790 N.ar  304  HIS304     -0.2212
    219  N         28.8640   85.1760   73.6750 N.3   307  PHE307     -0.1241
    220  CA        29.2950   86.5030   74.0870 C.3   307  PHE307      0.1605
    221  C         28.5040   87.0800   75.2480 C.2   307  PHE307      0.2264
    222  O         29.0390   87.8710   76.0200 O.2   307  PHE307     -0.2867
    223  CB        29.3120   87.4500   72.8880 C.3   307  PHE307      0.0534
    224  CG        30.4470   87.1790   71.9430 C.ar  307  PHE307     -0.0203
    225  CD1       30.2130   86.9190   70.5990 C.ar  307  PHE307     -0.0042
    226  CD2       31.7600   87.1410   72.4080 C.ar  307  PHE307     -0.0042
    227  CE1       31.2720   86.6210   69.7270 C.ar  307  PHE307     -0.0003
    228  CE2       32.8220   86.8460   71.5450 C.ar  307  PHE307     -0.0003
    229  CZ        32.5750   86.5830   70.2020 C.ar  307  PHE307     -0.0000
@<TRIPOS>BOND
     1    93    94    1
     2    94    97    1
     3    94    95    1
     4    97    98    1
     5   100    99   ar
     6    95    96    2
     7    99    98    1
     8    99   101   ar
     9    58    60   ar
    10    58    56   ar
    11    14    17    1
    12    14    13    1
    13    14    15    1
    14    17    18    1
    15    51    52    1
    16    60    59   ar
    17   121   119   ar
    18   121   123   ar
    19    52    55    1
    20    52    53    1
    21    55    56    1
    22    56    57   ar
    23    16    15    2
    24    15    19   am
    25   119   118   ar
    26   112   110    1
    27   123   122   ar
    28    59    57   ar
    29    19    20    1
    30    53    54    2
    31   110   111    1
    32   110   109    2
    33   118   117    1
    34   118   120   ar
    35    21    20    1
    36    21    22    2
    37    27    28    1
    38   122   120   ar
    39     3     4    2
    40     3     2    1
    41    20    23    1
    42    32    31    1
    43   117   114    1
    44    71    70    1
    45    71    72    1
    46   109   108    1
    47     1     2    1
    48    28    31    1
    49    28    29    1
    50    73    72    1
    51     2     5    1
    52    70    67    1
    53    23    24    1
    54    61    62    1
    55   114   113    1
    56   114   115    1
    57   108   107    1
    58    24    26    1
    59    24    25    1
    60   113   104   am
    61    29    30    2
    62    66    67    1
    63    66    63   am
    64    65    62    1
    65   115   116    2
    66     5     6    1
    67    67    68    1
    68    62    63    1
    69   106   107    1
    70   106   103    1
    71   102   103    1
    72    63    64    2
    73    68    69    2
    74   104   103    1
    75   104   105    2
    76     6     7   ar
    77     6     8   ar
    78     7     9   ar
    79   128   129    1
    80   128   125    1
    81    39    37    1
    82     9    11   ar
    83     8    10   ar
    84    38    37    1
    85    74    75    1
    86   126   125    1
    87   126   127    2
    88    33    34    1
    89   125   124    1
    90    11    10   ar
    91    11    12    1
    92    37    34    1
    93    91    90    1
    94    78    75    1
    95    78    79    1
    96    34    35    1
    97    75    76    1
    98    86    76   am
    99    86    87    1
   100   178   177    1
   101    35    36    2
   102    90    92    1
   103    90    87    1
   104    76    77    2
   105    81    79   ar
   106    81    83   ar
   107    79    80   ar
   108   192   191   ar
   109   192   190   ar
   110    87    88    1
   111    88    89    2
   112   207   206    1
   113   191   189   ar
   114   155   154    1
   115   177   176    1
   116   190   188   ar
   117    83    84   ar
   118    48    50   ar
   119    48    46   ar
   120   176   175    1
   121    80    82   ar
   122   200   198   ar
   123    50    49   ar
   124   197   198    1
   125   197   194    1
   126   189   186   ar
   127    46    45   ar
   128   206   205    1
   129   206   208    1
   130   205   202    1
   131   198   199   ar
   132   154   153   ar
   133   154   152   ar
   134   217   215   ar
   135   217   218   ar
   136    84    82   ar
   137    84    85    1
   138   188   186   ar
   139   188   187   ar
   140   137   135   ar
   141   167   169   ar
   142   167   165   ar
   143   169   168   ar
   144   175   174    1
   145   153   151   ar
   146    49    47   ar
   147   186   184   ar
   148   152   150   ar
   149   215   214   ar
   150   194   195    1
   151   194   193    1
   152   218   216   ar
   153   201   202    1
   154    45    47   ar
   155    45    44    1
   156   165   164   ar
   157   165   163   ar
   158   164   162   ar
   159   202   203    1
   160   168   166   ar
   161   174   171    1
   162   187   185   ar
   163   143   142    1
   164   135   134    1
   165   135   136   ar
   166   195   196    2
   167    40    41    1
   168    44    41    1
   169   163   166   ar
   170   163   161   ar
   171   227   229   ar
   172   227   225   ar
   173   162   161   ar
   174   151   149   ar
   175   184   185   ar
   176   184   183    1
   177   134   131    1
   178   214   216   ar
   179   214   213    1
   180   150   149   ar
   181   229   228   ar
   182   203   209   am
   183   203   204    2
   184   161   160    1
   185   209   210    1
   186    41    42    1
   187   225   224   ar
   188   170   171    1
   189   171   172    1
   190   149   148    1
   191   142   139    1
   192   183   180    1
   193   213   210    1
   194   160   157    1
   195   179   172   am
   196   179   180    1
   197   172   173    2
   198   131   130    1
   199   131   132    1
   200   210   211    1
   201    42    43    2
   202   228   226   ar
   203   180   181    1
   204   224   226   ar
   205   224   223    1
   206   139   138    1
   207   139   140    1
   208   148   145    1
   209   182   181    2
   210   157   158    1
   211   157   156    1
   212   132   133    2
   213   140   144   am
   214   140   141    2
   215   144   145    1
   216   145   146    1
   217   211   212    2
   218   223   220    1
   219   158   159    2
   220   219   220    1
   221   220   221    1
   222   146   147    2
   223   221   222    2
