@<TRIPOS>MOLECULE
tmp/1tndA00.pdb
 209 201 0 0 0
SMALL
GASTEIGER

@<TRIPOS>ATOM
      1  N         11.0180   91.3450   39.2260 N.3    12  GLY12      -0.1210
      2  CA         9.8110   90.6340   38.8400 C.3    12  GLY12       0.1956
      3  C          9.6950   90.3680   37.3290 C.2    12  GLY12       0.2612
      4  O         10.1170   91.1930   36.4750 O.2    12  GLY12      -0.2717
      5  N          9.1740   89.1800   37.0020 N.am   13  GLU13      -0.1965
      6  CA         8.9740   88.7350   35.6290 C.3    13  GLU13       0.1733
      7  C         10.1900   88.7160   34.7270 C.2    13  GLU13       0.2617
      8  O         10.0560   88.5970   33.4950 O.2    13  GLU13      -0.2715
      9  CB         7.8860   89.5570   34.9650 C.3    13  GLU13       0.0429
     10  CG         6.5450   89.3820   35.5730 C.3    13  GLU13       0.1163
     11  CD         5.6260   90.5220   35.2160 C.2    13  GLU13       0.3649
     12  OE1        6.0630   91.6800   35.3930 O.co2  13  GLU13      -0.2457
     13  OE2        4.4860   90.2610   34.7480 O.co2  13  GLU13      -0.2457
     14  N         11.3750   88.7480   35.3110 N.am   14  SER14      -0.1936
     15  CA        12.5650   88.7460   34.4840 C.3    14  SER14       0.2055
     16  C         12.7210   87.4290   33.7110 C.2    14  SER14       0.2644
     17  O         13.4130   87.3830   32.6890 O.2    14  SER14      -0.2714
     18  CB        13.8110   89.0850   35.3170 C.3    14  SER14       0.2130
     19  OG        13.8270   88.4050   36.5550 O.3    14  SER14      -0.2179
     20  N         12.0530   86.3700   34.1600 N.am   15  GLY15      -0.1939
     21  CA        12.1580   85.0900   33.4760 C.3    15  GLY15       0.2014
     22  C         12.8410   83.9700   34.2530 C.2    15  GLY15       0.2639
     23  O         13.1810   82.9460   33.6580 O.2    15  GLY15      -0.2714
     24  N         12.9660   84.1220   35.5780 N.am   16  LYS16      -0.1963
     25  CA        13.6390   83.1030   36.4230 C.3    16  LYS16       0.1728
     26  C         12.9490   81.7340   36.4610 C.2    16  LYS16       0.2617
     27  O         13.6230   80.7160   36.3310 O.2    16  LYS16      -0.2715
     28  CB        13.8990   83.6240   37.8570 C.3    16  LYS16       0.0311
     29  CG        14.6930   84.9490   37.9140 C.3    16  LYS16       0.0038
     30  CD        14.6800   85.5740   39.3090 C.3    16  LYS16       0.0206
     31  CE        13.2700   85.8200   39.8080 C.3    16  LYS16       0.1093
     32  NZ        12.6710   87.0820   39.2550 N.3    16  LYS16      -0.1314
     33  N         11.6390   81.6990   36.6900 N.am   17  SER17      -0.1936
     34  CA        10.8790   80.4400   36.6780 C.3    17  SER17       0.2055
     35  C         10.7910   79.7180   35.3270 C.2    17  SER17       0.2643
     36  O         10.5590   78.5030   35.2670 O.2    17  SER17      -0.2714
     37  CB         9.4820   80.7080   37.1410 C.3    17  SER17       0.2130
     38  OG         9.5760   81.3430   38.3830 O.3    17  SER17      -0.2179
     39  N         10.9290   80.4740   34.2410 N.am   18  THR18      -0.1950
     40  CA        10.8940   79.8940   32.9090 C.3    18  THR18       0.1897
     41  C         12.2230   79.1190   32.7240 C.2    18  THR18       0.2313
     42  O         12.2480   78.0380   32.1390 O.2    18  THR18      -0.2863
     43  CB        10.5980   81.0120   31.8360 C.3    18  THR18       0.1794
     44  OG1        9.3390   81.6030   32.1640 O.3    18  THR18      -0.2208
     45  CG2       10.4580   80.4270   30.3900 C.3    18  THR18       0.0378
     46  N         11.5650   75.7540   34.3840 N.3    21  LYS21      -0.1245
     47  CA        10.8160   74.8530   33.5040 C.3    21  LYS21       0.1561
     48  C         11.7540   74.2710   32.4260 C.2    21  LYS21       0.2260
     49  O         11.6780   73.0930   32.0580 O.2    21  LYS21      -0.2867
     50  CB         9.7220   75.6620   32.8290 C.3    21  LYS21       0.0271
     51  CG         8.5020   75.8300   33.6490 C.3    21  LYS21       0.0035
     52  CD         7.7310   76.9770   33.1540 C.3    21  LYS21       0.0206
     53  CE         6.3900   76.9660   33.7510 C.3    21  LYS21       0.1093
     54  NZ         6.2060   78.2400   34.4670 N.3    21  LYS21      -0.1314
     55  N          0.6600   90.9620   30.6370 N.3   119  ASN119     -0.1225
     56  CA         1.4940   89.7570   30.6620 C.3   119  ASN119      0.1785
     57  C          2.3490   89.7220   29.4500 C.2   119  ASN119      0.2597
     58  O          1.9480   90.2440   28.4320 O.2   119  ASN119     -0.2718
     59  CB         0.6320   88.5010   30.6760 C.3   119  ASN119      0.1169
     60  CG         0.0440   88.2000   32.0420 C.2   119  ASN119      0.2627
     61  OD1       -0.8960   87.4220   32.1800 O.2   119  ASN119     -0.2716
     62  ND2        0.5960   88.8300   33.0660 N.am  119  ASN119     -0.0877
     63  N          3.5170   89.0890   29.5510 N.am  120  ASP120     -0.1960
     64  CA         4.4650   88.9440   28.4330 C.3   120  ASP120      0.1840
     65  C          3.8690   88.1570   27.2620 C.2   120  ASP120      0.2622
     66  O          4.1060   88.4660   26.1040 O.2   120  ASP120     -0.2715
     67  CB         5.7060   88.1620   28.8840 C.3   120  ASP120      0.1450
     68  CG         6.6200   88.9790   29.7460 C.2   120  ASP120      0.3671
     69  OD1        6.3280   89.1640   30.9680 O.co2 120  ASP120     -0.2456
     70  OD2        7.6350   89.4370   29.1780 O.co2 120  ASP120     -0.2456
     71  N          3.1740   87.0890   27.6160 N.am  121  SER121     -0.1950
     72  CA         2.5560   86.1610   26.6940 C.3   121  SER121      0.1924
     73  C          1.1390   86.5430   26.2580 C.2   121  SER121      0.2314
     74  O          0.3820   85.6880   25.7660 O.2   121  SER121     -0.2863
     75  CB         2.5290   84.7890   27.3780 C.3   121  SER121      0.2116
     76  OG         3.8360   84.3850   27.7390 O.3   121  SER121     -0.2180
     77  N          5.6980   76.7620   28.7320 N.3   145  LEU145     -0.1231
     78  CA         6.8070   77.7260   28.9050 C.3   145  LEU145      0.1693
     79  C          6.3780   79.2020   28.9230 C.2   145  LEU145      0.2592
     80  O          7.0400   80.0500   29.5230 O.2   145  LEU145     -0.2718
     81  CB         7.8890   77.5330   27.8060 C.3   145  LEU145      0.0284
     82  CG         8.8660   76.3510   27.9680 C.3   145  LEU145      0.0019
     83  CD1        9.6300   76.0880   26.6670 C.3   145  LEU145      0.0001
     84  CD2        9.8690   76.6020   29.1620 C.3   145  LEU145      0.0001
     85  N          5.3030   79.5060   28.2080 N.am  146  ARG146     -0.1966
     86  CA         4.7710   80.8560   28.0900 C.3   146  ARG146      0.1729
     87  C          3.9300   81.2210   29.3060 C.2   146  ARG146      0.2617
     88  O          3.6130   82.4080   29.5160 O.2   146  ARG146     -0.2715
     89  CB         3.9390   80.9520   26.7980 C.3   146  ARG146      0.0348
     90  CG         4.7590   80.8630   25.5440 C.3   146  ARG146      0.0492
     91  CD         5.4680   82.1830   25.2940 C.3   146  ARG146      0.2205
     92  NE         6.2360   82.1960   24.0500 N.pl3 146  ARG146     -0.0865
     93  CZ         6.5000   83.3040   23.3480 C.cat 146  ARG146      0.5346
     94  NH1        6.0680   84.4890   23.7710 N.pl3 146  ARG146      0.1354
     95  NH2        7.2050   83.2320   22.2180 N.pl3 146  ARG146      0.1354
     96  N          3.5570   80.1960   30.0760 N.am  147  SER147     -0.1936
     97  CA         2.7690   80.3210   31.2980 C.3   147  SER147      0.2055
     98  C          3.3330   81.3460   32.2830 C.2   147  SER147      0.2643
     99  O          4.5470   81.5430   32.3560 O.2   147  SER147     -0.2714
    100  CB         2.8130   78.9930   32.0120 C.3   147  SER147      0.2130
    101  OG         1.5990   78.3490   31.9020 O.3   147  SER147     -0.2179
    102  N          2.4630   81.9320   33.0990 N.am  148  ARG148     -0.1963
    103  CA         2.8990   82.8870   34.1020 C.3   148  ARG148      0.1729
    104  C          2.2160   82.7550   35.4470 C.2   148  ARG148      0.2616
    105  O          0.9920   82.8500   35.5520 O.2   148  ARG148     -0.2715
    106  CB         2.7580   84.3410   33.6470 C.3   148  ARG148      0.0348
    107  CG         2.2920   85.2490   34.7730 C.3   148  ARG148      0.0492
    108  CD         3.1470   86.4450   35.0230 C.3   148  ARG148      0.2205
    109  NE         4.4110   86.0820   35.6270 N.pl3 148  ARG148     -0.0865
    110  CZ         4.8710   86.5430   36.7870 C.cat 148  ARG148      0.5346
    111  NH1        4.1640   87.4140   37.5060 N.pl3 148  ARG148      0.1354
    112  NH2        6.0470   86.1130   37.2140 N.pl3 148  ARG148      0.1354
    113  N          3.0250   82.5540   36.4800 N.am  149  VAL149     -0.1963
    114  CA         2.5140   82.5030   37.8420 C.3   149  VAL149      0.1727
    115  C          3.5930   83.1700   38.6840 C.2   149  VAL149      0.2616
    116  O          4.7130   82.6880   38.6890 O.2   149  VAL149     -0.2715
    117  CB         2.3430   81.0700   38.3640 C.3   149  VAL149      0.0290
    118  CG1        2.0420   81.1100   39.8420 C.3   149  VAL149      0.0023
    119  CG2        1.2310   80.3230   37.6140 C.3   149  VAL149      0.0023
    120  N          3.2640   84.2790   39.3560 N.am  150  LYS150     -0.1963
    121  CA         4.2200   84.9870   40.2410 C.3   150  LYS150      0.1728
    122  C          4.6750   84.0470   41.3490 C.2   150  LYS150      0.2616
    123  O          3.8490   83.4010   41.9930 O.2   150  LYS150     -0.2715
    124  CB         3.5780   86.2150   40.9030 C.3   150  LYS150      0.0311
    125  CG         4.5010   86.8570   41.9610 C.3   150  LYS150      0.0038
    126  CD         3.9200   88.1210   42.5390 C.3   150  LYS150      0.0206
    127  CE         2.7250   87.8470   43.4090 C.3   150  LYS150      0.1093
    128  NZ         2.1900   89.1310   43.9560 N.3   150  LYS150     -0.1314
    129  N          5.9750   83.9430   41.5420 N.am  151  THR151     -0.1951
    130  CA         6.5250   83.0520   42.5600 C.3   151  THR151      0.1897
    131  C          6.4800   83.7650   43.9110 C.2   151  THR151      0.2313
    132  O          7.0540   84.8450   44.0560 O.2   151  THR151     -0.2863
    133  CB         7.9890   82.6860   42.2200 C.3   151  THR151      0.1794
    134  OG1        8.0880   82.4210   40.8090 O.3   151  THR151     -0.2208
    135  CG2        8.4620   81.4440   43.0250 C.3   151  THR151      0.0378
    136  N         13.0680   82.0150   43.1750 N.3   171  VAL171     -0.1231
    137  CA        12.3540   82.8490   44.1290 C.3   171  VAL171      0.1692
    138  C         11.6980   84.0470   43.4120 C.2   171  VAL171      0.2593
    139  O         12.1530   84.4320   42.3530 O.2   171  VAL171     -0.2718
    140  CB        13.3460   83.3930   45.2510 C.3   171  VAL171      0.0266
    141  CG1       14.4510   84.2680   44.6180 C.3   171  VAL171      0.0020
    142  CG2       12.5640   84.1710   46.3240 C.3   171  VAL171      0.0020
    143  N         10.6100   84.5990   43.9520 N.am  172  GLY172     -0.1942
    144  CA         9.9940   85.7630   43.3210 C.3   172  GLY172      0.2014
    145  C         10.9800   86.9290   43.3680 C.2   172  GLY172      0.2639
    146  O         11.7480   87.0370   44.3180 O.2   172  GLY172     -0.2714
    147  N         10.9100   87.8330   42.3950 N.am  173  GLY173     -0.1939
    148  CA        11.8370   88.9420   42.3360 C.3   173  GLY173      0.2014
    149  C         11.1080   90.2260   42.5860 C.2   173  GLY173      0.2638
    150  O         11.7000   91.2800   42.4870 O.2   173  GLY173     -0.2714
    151  N          9.7970   90.1750   42.7880 N.am  174  GLN174     -0.1977
    152  CA         9.0590   91.4140   43.0850 C.3   174  GLN174      0.1601
    153  C          9.4880   91.9680   44.4540 C.2   174  GLN174      0.2287
    154  O          9.9320   91.2090   45.3210 O.2   174  GLN174     -0.2864
    155  CB         7.5480   91.2100   42.9660 C.3   174  GLN174      0.0394
    156  CG         7.1380   91.3420   41.4690 C.3   174  GLN174      0.0908
    157  CD         5.6800   91.1180   41.1730 C.2   174  GLN174      0.2608
    158  OE1        4.8420   91.0420   42.0640 O.2   174  GLN174     -0.2717
    159  NE2        5.3660   90.9970   39.8980 N.am  174  GLN174     -0.0878
    160  N         17.8650   88.8250   29.1730 N.3   239  ASN239     -0.1225
    161  CA        16.7460   88.0410   28.6850 C.3   239  ASN239      0.1785
    162  C         15.7090   88.7450   27.8410 C.2   239  ASN239      0.2597
    163  O         15.6020   89.9880   27.8540 O.2   239  ASN239     -0.2718
    164  CB        16.0400   87.3630   29.8920 C.3   239  ASN239      0.1169
    165  CG        15.1000   86.2200   29.4830 C.2   239  ASN239      0.2627
    166  OD1       15.4480   85.4020   28.6590 O.2   239  ASN239     -0.2716
    167  ND2       13.9110   86.1720   30.0720 N.am  239  ASN239     -0.0877
    168  N         14.9230   87.8900   27.1640 N.am  240  LYS240     -0.1980
    169  CA        13.8250   88.2860   26.2930 C.3   240  LYS240      0.1596
    170  C         14.4070   88.9980   25.1120 C.2   240  LYS240      0.2287
    171  O         13.9720   90.0940   24.7710 O.2   240  LYS240     -0.2864
    172  CB        12.8400   89.1830   27.0570 C.3   240  LYS240      0.0298
    173  CG        12.2670   88.5150   28.3210 C.3   240  LYS240      0.0038
    174  CD        11.2060   89.3730   28.9720 C.3   240  LYS240      0.0206
    175  CE        10.6760   88.7210   30.2180 C.3   240  LYS240      0.1093
    176  NZ         9.6770   89.5680   30.9000 N.3   240  LYS240     -0.1314
    177  N         14.1980   88.1360   22.0650 N.3   242  ASP242     -0.1225
    178  CA        13.1960   88.1020   20.9920 C.3   242  ASP242      0.1805
    179  C         12.2950   89.3320   20.9860 C.2   242  ASP242      0.2597
    180  O         12.1440   90.0010   19.9620 O.2   242  ASP242     -0.2718
    181  CB        12.3900   86.7970   21.0680 C.3   242  ASP242      0.1424
    182  CG        11.6750   86.6060   22.3920 C.2   242  ASP242      0.3668
    183  OD1       12.1870   87.0290   23.4530 O.co2 242  ASP242     -0.2456
    184  OD2       10.5840   86.0060   22.3430 O.co2 242  ASP242     -0.2456
    185  N         11.7750   89.6560   22.1580 N.am  243  VAL243     -0.1980
    186  CA        10.9340   90.8190   22.3950 C.3   243  VAL243      0.1595
    187  C         11.7740   92.1290   22.2590 C.2   243  VAL243      0.2287
    188  O         11.2990   93.1560   21.7410 O.2   243  VAL243     -0.2864
    189  CB        10.3670   90.7480   23.8040 C.3   243  VAL243      0.0276
    190  CG1        9.5210   91.9610   24.1150 C.3   243  VAL243      0.0022
    191  CG2        9.6180   89.4630   24.0000 C.3   243  VAL243      0.0022
    192  N         16.7050   83.9410   25.4760 N.3   295  CYS295     -0.1221
    193  CA        15.2690   83.8500   25.3330 C.3   295  CYS295      0.1808
    194  C         14.9680   82.6440   26.2000 C.2   295  CYS295      0.2601
    195  O         15.1540   81.5000   25.7800 O.2   295  CYS295     -0.2717
    196  CB        14.8610   83.5950   23.8560 C.3   295  CYS295      0.0970
    197  SG        13.0780   83.3000   23.6570 S.3   295  CYS295     -0.0800
    198  N         14.5020   82.8960   27.4180 N.am  296  ALA296     -0.1965
    199  CA        14.2140   81.8230   28.3700 C.3   296  ALA296      0.1728
    200  C         13.1730   80.8140   27.8750 C.2   296  ALA296      0.2616
    201  O         13.2010   79.6140   28.2440 O.2   296  ALA296     -0.2715
    202  CB        13.8390   82.4140   29.7430 C.3   296  ALA296      0.0334
    203  N         12.2500   81.2900   27.0400 N.am  297  THR297     -0.1951
    204  CA        11.2190   80.4240   26.4690 C.3   297  THR297      0.1897
    205  C         11.7870   79.5330   25.3610 C.2   297  THR297      0.2313
    206  O         11.1400   78.5930   24.9080 O.2   297  THR297     -0.2863
    207  CB        10.1000   81.2630   25.9180 C.3   297  THR297      0.1794
    208  OG1       10.6490   82.4140   25.2350 O.3   297  THR297     -0.2208
    209  CG2        9.2460   81.7340   27.0320 C.3   297  THR297      0.0378
@<TRIPOS>BOND
     1   180   179    2
     2   179   178    1
     3   179   185   am
     4   178   181    1
     5   178   177    1
     6   181   182    1
     7   188   187    2
     8   185   186    1
     9    95    93    1
    10   187   186    1
    11   184   182   ar
    12   182   183   ar
    13   186   189    1
    14    93    94    1
    15    93    92    2
    16   197   196    1
    17   189   191    1
    18   189   190    1
    19   196   193    1
    20    92    91    1
    21   171   170    2
    22   206   205    2
    23   170   169    1
    24   208   207    1
    25    91    90    1
    26   193   192    1
    27   193   194    1
    28   205   204    1
    29    90    89    1
    30    74    73    2
    31   195   194    2
    32   207   204    1
    33   207   209    1
    34    66    65    2
    35   194   198   am
    36    73    72    1
    37   169   172    1
    38   169   168    1
    39   204   203    1
    40    83    82    1
    41    72    75    1
    42    72    71    1
    43    89    86    1
    44   203   200   am
    45   172   173    1
    46   168   162   am
    47    65    71   am
    48    65    64    1
    49    75    76    1
    50   198   199    1
    51    81    82    1
    52    81    78    1
    53   162   163    2
    54   162   161    1
    55   200   201    2
    56   200   199    1
    57    82    84    1
    58    86    85    1
    59    86    87    1
    60    85    79   am
    61   173   174    1
    62   199   202    1
    63    58    57    2
    64    64    67    1
    65    64    63    1
    66   166   165    2
    67   161   160    1
    68   161   164    1
    69    77    78    1
    70    67    68    1
    71    78    79    1
    72    79    80    2
    73   174   175    1
    74    70    68   ar
    75    87    88    2
    76    87    96   am
    77    57    63   am
    78    57    56    1
    79   165   164    1
    80   165   167   am
    81    68    69   ar
    82    96    97    1
    83   175   176    1
    84    45    43    1
    85    55    56    1
    86    56    59    1
    87    59    60    1
    88    97   100    1
    89    97    98    1
    90    43    44    1
    91    43    40    1
    92   101   100    1
    93    60    61    2
    94    60    62   am
    95    49    48    2
    96    42    41    2
    97    98    99    2
    98    98   102   am
    99    48    47    1
   100    17    16    2
   101    41    40    1
   102    50    47    1
   103    50    51    1
   104    40    39    1
   105   102   103    1
   106    52    51    1
   107    52    53    1
   108    21    20    1
   109    21    22    1
   110     8     7    2
   111    47    46    1
   112   106   103    1
   113   106   107    1
   114    23    22    2
   115    16    20   am
   116    16    15    1
   117    53    54    1
   118   103   104    1
   119    39    35   am
   120    22    24   am
   121    15    14    1
   122    15    18    1
   123     7    14   am
   124     7     6    1
   125    13    11   ar
   126   107   108    1
   127     9    10    1
   128     9     6    1
   129   108   109    1
   130    11    12   ar
   131    11    10    1
   132    36    35    2
   133    18    19    1
   134    35    34    1
   135   104   105    2
   136   104   113   am
   137    24    25    1
   138   109   110    2
   139     6     5    1
   140    27    26    2
   141    25    26    1
   142    25    28    1
   143    26    33   am
   144     4     3    2
   145   113   114    1
   146    34    33    1
   147    34    37    1
   148   110   112    1
   149   110   111    1
   150     5     3   am
   151    37    38    1
   152     3     2    1
   153   119   117    1
   154   114   117    1
   155   114   115    1
   156    28    29    1
   157    29    30    1
   158   117   118    1
   159   115   116    2
   160   115   120   am
   161     2     1    1
   162    32    31    1
   163    30    31    1
   164   120   121    1
   165   159   157   am
   166   121   124    1
   167   121   122    1
   168   134   133    1
   169   124   125    1
   170   157   156    1
   171   157   158    2
   172   122   129   am
   173   122   123    2
   174   156   155    1
   175   129   130    1
   176   125   126    1
   177   133   130    1
   178   133   135    1
   179   148   147    1
   180   148   149    1
   181   139   138    2
   182   147   145   am
   183   150   149    2
   184   126   127    1
   185   130   131    1
   186   149   151   am
   187   151   152    1
   188   155   152    1
   189   152   153    1
   190   136   137    1
   191   144   145    1
   192   144   143    1
   193   145   146    2
   194   127   128    1
   195   138   143   am
   196   138   137    1
   197   131   132    2
   198   137   140    1
   199   153   154    2
   200   141   140    1
   201   140   142    1
