@<TRIPOS>MOLECULE
tmp/1tnhA00.pdb
 125 125 0 0 0
SMALL
GASTEIGER

@<TRIPOS>ATOM
      1  N         20.1520   12.2980   25.1350 N.3    40  HIS40      -0.1241
      2  CA        21.1420   11.2160   25.1400 C.3    40  HIS40       0.1621
      3  C         22.2330   11.4050   26.1880 C.2    40  HIS40       0.2264
      4  O         23.0100   10.4840   26.4490 O.2    40  HIS40      -0.2867
      5  CB        21.7700   11.0480   23.7410 C.3    40  HIS40       0.0745
      6  CG        22.8730   11.9760   23.2260 C.ar   40  HIS40       0.0817
      7  ND1       22.7510   13.0390   22.4370 N.ar   40  HIS40      -0.2268
      8  CD2       24.2270   11.8530   23.4900 C.ar   40  HIS40       0.1154
      9  CE1       23.9380   13.5770   22.2210 C.ar   40  HIS40       0.1986
     10  NE2       24.8150   12.8500   22.8570 N.ar   40  HIS40      -0.2212
     11  N         34.4590   20.7890   13.3720 N.3   171  ASP171     -0.1225
     12  CA        33.2200   20.1490   13.8090 C.3   171  ASP171      0.1805
     13  C         33.1470   20.0200   15.3310 C.2   171  ASP171      0.2598
     14  O         34.1570   20.1720   16.0410 O.2   171  ASP171     -0.2718
     15  CB        33.1150   18.7230   13.1860 C.3   171  ASP171      0.1424
     16  CG        31.7550   18.0470   13.0940 C.2   171  ASP171      0.3668
     17  OD1       30.7470   18.6310   13.4350 O.co2 171  ASP171     -0.2456
     18  OD2       31.6820   16.9000   12.6740 O.co2 171  ASP171     -0.2456
     19  N         31.9470   19.7800   15.8770 N.am  172  SER172     -0.1938
     20  CA        31.8410   19.3020   17.2540 C.3   172  SER172      0.2055
     21  C         32.1560   17.7930   17.2840 C.2   172  SER172      0.2643
     22  O         32.2060   17.0470   16.2730 O.2   172  SER172     -0.2714
     23  CB        30.4340   19.5010   17.8310 C.3   172  SER172      0.2130
     24  OG        29.4380   18.8810   17.0240 O.3   172  SER172     -0.2179
     25  N         32.3290   17.2620   18.4740 N.am  173  CYS173     -0.1953
     26  CA        32.7450   15.8700   18.5770 C.3   173  CYS173      0.1843
     27  C         32.3310   15.2340   19.9040 C.2   173  CYS173      0.2625
     28  O         31.7130   15.9030   20.7340 O.2   173  CYS173     -0.2714
     29  CB        34.2710   15.8210   18.3880 C.3   173  CYS173      0.0997
     30  SG        34.9240   14.2090   17.8780 S.3   173  CYS173     -0.0797
     31  N         32.6390   13.9740   20.1860 N.am  174  GLN174     -0.1977
     32  CA        32.2300   13.3340   21.4280 C.3   174  GLN174      0.1601
     33  C         32.7790   14.0750   22.6610 C.2   174  GLN174      0.2287
     34  O         33.9200   14.5310   22.7630 O.2   174  GLN174     -0.2864
     35  CB        32.6850   11.8770   21.2390 C.3   174  GLN174      0.0394
     36  CG        33.6230   11.2320   22.2310 C.3   174  GLN174      0.0908
     37  CD        33.0430   10.9620   23.6320 C.2   174  GLN174      0.2608
     38  OE1       33.6130   11.3690   24.6660 O.2   174  GLN174     -0.2717
     39  NE2       31.8870   10.3120   23.7820 N.am  174  GLN174     -0.0878
     40  N         28.6140   16.8430   23.1840 N.3   177  SER177     -0.1217
     41  CA        27.1850   16.4910   23.3590 C.3   177  SER177      0.1889
     42  C         26.4040   17.2550   24.4090 C.2   177  SER177      0.2288
     43  O         26.8880   17.4410   25.5170 O.2   177  SER177     -0.2866
     44  CB        27.0140   15.0240   23.7190 C.3   177  SER177      0.2089
     45  OG        27.2000   14.2100   22.5570 O.3   177  SER177     -0.2183
     46  N         24.2060   20.3600   20.6050 N.3   191  VAL191     -0.1231
     47  CA        25.0880   19.3630   19.9700 C.3   191  VAL191      0.1692
     48  C         24.4720   17.9680   20.1630 C.2   191  VAL191      0.2593
     49  O         24.2470   17.4750   21.2870 O.2   191  VAL191     -0.2718
     50  CB        26.4900   19.4540   20.6070 C.3   191  VAL191      0.0266
     51  CG1       27.4180   18.4760   19.9120 C.3   191  VAL191      0.0020
     52  CG2       27.0540   20.8650   20.4810 C.3   191  VAL191      0.0020
     53  N         24.1600   17.3370   19.0370 N.am  192  SER192     -0.1938
     54  CA        23.4030   16.0910   19.1330 C.3   192  SER192      0.2055
     55  C         24.0950   14.8580   18.5660 C.2   192  SER192      0.2643
     56  O         24.4610   13.9380   19.3180 O.2   192  SER192     -0.2714
     57  CB        22.0320   16.2830   18.4530 C.3   192  SER192      0.2130
     58  OG        21.2510   15.1040   18.4800 O.3   192  SER192     -0.2179
     59  N         24.3720   14.8210   17.2720 N.am  193  TRP193     -0.1959
     60  CA        24.9770   13.6570   16.6690 C.3   193  TRP193      0.1771
     61  C         25.6600   13.9410   15.3140 C.2   193  TRP193      0.2620
     62  O         25.7090   15.0600   14.8010 O.2   193  TRP193     -0.2715
     63  CB        23.8880   12.5450   16.5010 C.3   193  TRP193      0.0590
     64  CG        22.7750   12.7850   15.4690 C.ar  193  TRP193      0.0006
     65  CD1       21.6420   13.4680   15.8100 C.ar  193  TRP193      0.0946
     66  CD2       22.7240   12.3220   14.1570 C.ar  193  TRP193      0.0152
     67  NE1       20.8730   13.4370   14.7430 N.ar  193  TRP193     -0.2442
     68  CE2       21.4650   12.7720   13.7390 C.ar  193  TRP193      0.0810
     69  CE3       23.5300   11.6100   13.2680 C.ar  193  TRP193      0.0012
     70  CZ2       20.9900   12.5290   12.4570 C.ar  193  TRP193      0.0191
     71  CZ3       23.0520   11.3720   11.9860 C.ar  193  TRP193      0.0001
     72  CH2       21.7990   11.8250   11.5840 C.ar  193  TRP193      0.0015
     73  N         26.2740   12.9220   14.7100 N.am  194  GLY194     -0.1954
     74  CA        26.8780   13.0850   13.4030 C.3   194  GLY194      0.1869
     75  C         27.5360   11.7800   13.0280 C.2   194  GLY194      0.2309
     76  O         27.4250   10.7930   13.7670 O.2   194  GLY194     -0.2863
     77  N         30.9030   10.2280   12.9330 N.3   196  GLY196     -0.1210
     78  CA        32.2600   10.6510   13.3150 C.3   196  GLY196      0.1956
     79  C         32.4090   12.1970   13.5040 C.2   196  GLY196      0.2612
     80  O         31.4320   12.9340   13.7270 O.2   196  GLY196     -0.2717
     81  N         33.6030   12.7570   13.3700 N.am  197  CYS197     -0.1970
     82  CA        33.8480   14.1850   13.5670 C.3   197  CYS197      0.1712
     83  C         34.7560   14.7490   12.4920 C.2   197  CYS197      0.2296
     84  O         35.7890   14.1760   12.1550 O.2   197  CYS197     -0.2864
     85  CB        34.5340   14.4640   14.8880 C.3   197  CYS197      0.0983
     86  SG        33.8330   13.5680   16.3020 S.3   197  CYS197     -0.0798
     87  N         30.0630   14.9770    6.1380 N.3   202  LYS202     -0.1231
     88  CA        29.3770   14.4920    7.3270 C.3   202  LYS202      0.1678
     89  C         29.4030   15.5660    8.4170 C.2   202  LYS202      0.2434
     90  O         30.1210   15.4370    9.4300 O.2   202  LYS202     -0.2733
     91  CB        30.0520   13.1870    7.8220 C.3   202  LYS202      0.0284
     92  CG        29.8190   11.9770    6.9090 C.3   202  LYS202      0.0035
     93  CD        28.3170   11.6270    6.8570 C.3   202  LYS202      0.0206
     94  CE        28.0250   10.6040    5.7630 C.3   202  LYS202      0.1093
     95  NZ        26.6540   10.1220    5.7930 N.3   202  LYS202     -0.1314
     96  N         28.6540   16.6810    8.2020 N.am  203  PRO203     -0.2718
     97  CA        28.6350   17.7890    9.1890 C.3   203  PRO203      0.1535
     98  C         27.9490   17.4470   10.5180 C.2   203  PRO203      0.2599
     99  O         27.2460   16.4220   10.5710 O.2   203  PRO203     -0.2715
    100  CB        27.9340   18.9340    8.4940 C.3   203  PRO203      0.0310
    101  CG        26.8790   18.2030    7.6890 C.3   203  PRO203      0.0237
    102  CD        27.6930   17.0140    7.1450 C.3   203  PRO203      0.0939
    103  N         28.0910   18.2500   11.5810 N.am  204  GLY204     -0.1941
    104  CA        27.3530   17.9990   12.7910 C.3   204  GLY204      0.2014
    105  C         25.8340   18.2120   12.6390 C.2   204  GLY204      0.2639
    106  O         25.3510   19.0330   11.8520 O.2   204  GLY204     -0.2714
    107  N         25.0570   17.4000   13.3770 N.am  205  VAL205     -0.1963
    108  CA        23.6000   17.4940   13.4570 C.3   205  VAL205      0.1727
    109  C         23.1870   17.9330   14.8630 C.2   205  VAL205      0.2616
    110  O         23.6620   17.4640   15.9060 O.2   205  VAL205     -0.2715
    111  CB        22.9170   16.1410   13.1380 C.3   205  VAL205      0.0290
    112  CG1       21.3910   16.3260   13.0910 C.3   205  VAL205      0.0023
    113  CG2       23.4240   15.6220   11.7960 C.3   205  VAL205      0.0023
    114  N         22.3090   18.9330   14.8520 N.am  206  TYR206     -0.1974
    115  CA        21.9200   19.6650   16.0440 C.3   206  TYR206      0.1639
    116  C         20.4240   19.6750   16.3010 C.2   206  TYR206      0.2290
    117  O         19.6080   19.8090   15.3770 O.2   206  TYR206     -0.2864
    118  CB        22.4520   21.1250   15.9090 C.3   206  TYR206      0.0560
    119  CG        23.9790   21.1400   15.7770 C.ar  206  TYR206     -0.0198
    120  CD1       24.7550   21.1290   16.9210 C.ar  206  TYR206     -0.0009
    121  CD2       24.5960   21.0930   14.5370 C.ar  206  TYR206     -0.0009
    122  CE1       26.1310   21.0630   16.8420 C.ar  206  TYR206      0.0417
    123  CE2       25.9700   21.0230   14.4560 C.ar  206  TYR206      0.0417
    124  CZ        26.7370   21.0070   15.6040 C.ar  206  TYR206      0.1957
    125  OH        28.1270   20.9370   15.5430 O.3   206  TYR206     -0.2866
@<TRIPOS>BOND
     1    94    95    1
     2    94    93    1
     3    87    88    1
     4    93    92    1
     5    92    91    1
     6   102   101    1
     7   102    96    1
     8    88    91    1
     9    88    89    1
    10   101   100    1
    11    96    89   am
    12    96    97    1
    13    89    90    2
    14   100    97    1
    15    97    98    1
    16    98    99    2
    17    98   103   am
    18   103   104    1
    19    72    71   ar
    20    72    70   ar
    21   113   111    1
    22   106   105    2
    23    71    69   ar
    24    84    83    2
    25    70    68   ar
    26    83    82    1
    27   105   104    1
    28   105   107   am
    29    18    16   ar
    30    77    78    1
    31    75    74    1
    32    75    76    2
    33   112   111    1
    34    16    15    1
    35    16    17   ar
    36   111   108    1
    37    15    12    1
    38    69    66   ar
    39    78    79    1
    40    81    79   am
    41    81    82    1
    42    11    12    1
    43   107   108    1
    44    74    73    1
    45   108   109    1
    46    79    80    2
    47    82    85    1
    48    68    66   ar
    49    68    67   ar
    50    12    13    1
    51    66    64   ar
    52   123   121   ar
    53   123   124   ar
    54   121   119   ar
    55    73    61   am
    56    67    65   ar
    57    62    61    2
    58   114   109   am
    59   114   115    1
    60   109   110    2
    61    85    86    1
    62    61    60    1
    63    13    19   am
    64    13    14    2
    65   117   116    2
    66    64    65   ar
    67    64    63    1
    68   125   124    1
    69   124   122   ar
    70   119   118    1
    71   119   120   ar
    72    19    20    1
    73   118   115    1
    74   115   116    1
    75    22    21    2
    76    86    30    1
    77    63    60    1
    78    60    59    1
    79   122   120   ar
    80    24    23    1
    81    20    21    1
    82    20    23    1
    83    59    55   am
    84    21    25   am
    85    30    29    1
    86    29    26    1
    87    57    58    1
    88    57    54    1
    89    25    26    1
    90    55    54    1
    91    55    56    2
    92    26    27    1
    93    53    54    1
    94    53    48   am
    95    27    31   am
    96    27    28    2
    97    51    50    1
    98    47    48    1
    99    47    46    1
   100    47    50    1
   101    48    49    2
   102    31    32    1
   103    52    50    1
   104    35    32    1
   105    35    36    1
   106    32    33    1
   107     9     7   ar
   108     9    10   ar
   109    36    37    1
   110     7     6   ar
   111    45    44    1
   112    33    34    2
   113    10     8   ar
   114    40    41    1
   115     6     8   ar
   116     6     5    1
   117    41    44    1
   118    41    42    1
   119    37    39   am
   120    37    38    2
   121     5     2    1
   122    42    43    2
   123     1     2    1
   124     2     3    1
   125     3     4    2
