@<TRIPOS>MOLECULE
tmp/1tniA00.pdb
 121 122 0 0 0
SMALL
GASTEIGER

@<TRIPOS>ATOM
      1  N         34.3320   20.7740   13.3040 N.3   171  ASP171     -0.1225
      2  CA        33.0880   20.1350   13.7620 C.3   171  ASP171      0.1805
      3  C         32.9900   20.0180   15.2790 C.2   171  ASP171      0.2598
      4  O         33.9920   20.1570   15.9980 O.2   171  ASP171     -0.2718
      5  CB        32.9940   18.7130   13.1830 C.3   171  ASP171      0.1424
      6  CG        31.6390   18.0810   13.0040 C.2   171  ASP171      0.3668
      7  OD1       30.6310   18.6530   13.3400 O.co2 171  ASP171     -0.2456
      8  OD2       31.5690   16.9800   12.4820 O.co2 171  ASP171     -0.2456
      9  N         31.8070   19.7720   15.8270 N.am  172  SER172     -0.1938
     10  CA        31.7850   19.3470   17.2290 C.3   172  SER172      0.2055
     11  C         32.1190   17.8270   17.3170 C.2   172  SER172      0.2643
     12  O         32.2290   17.0890   16.3180 O.2   172  SER172     -0.2714
     13  CB        30.4370   19.6340   17.8260 C.3   172  SER172      0.2130
     14  OG        29.4190   19.0250   17.0600 O.3   172  SER172     -0.2179
     15  N         32.3600   17.2300   18.4690 N.am  173  CYS173     -0.1953
     16  CA        32.8400   15.8410   18.5170 C.3   173  CYS173      0.1843
     17  C         32.4490   15.2080   19.8470 C.2   173  CYS173      0.2625
     18  O         31.7350   15.8590   20.6080 O.2   173  CYS173     -0.2714
     19  CB        34.3390   15.8360   18.3520 C.3   173  CYS173      0.0997
     20  SG        34.9970   14.2460   17.8100 S.3   173  CYS173     -0.0797
     21  N         32.8590   14.0090   20.2450 N.am  174  GLN174     -0.1977
     22  CA        32.3720   13.4250   21.4810 C.3   174  GLN174      0.1601
     23  C         32.8740   14.1340   22.7340 C.2   174  GLN174      0.2287
     24  O         34.0190   14.5520   22.8510 O.2   174  GLN174     -0.2864
     25  CB        32.7280   11.9240   21.3660 C.3   174  GLN174      0.0394
     26  CG        33.6230   11.1590   22.3110 C.3   174  GLN174      0.0908
     27  CD        33.1240   11.0070   23.7490 C.2   174  GLN174      0.2608
     28  OE1       33.7250   11.5430   24.6940 O.2   174  GLN174     -0.2717
     29  NE2       32.0270   10.3190   24.0300 N.am  174  GLN174     -0.0878
     30  N         28.5200   16.8840   23.1430 N.3   177  SER177     -0.1217
     31  CA        27.0780   16.6010   23.2770 C.3   177  SER177      0.1889
     32  C         26.3170   17.3640   24.3370 C.2   177  SER177      0.2288
     33  O         26.8170   17.5300   25.4370 O.2   177  SER177     -0.2866
     34  CB        26.7970   15.1430   23.5960 C.3   177  SER177      0.2089
     35  OG        26.9210   14.3700   22.4070 O.3   177  SER177     -0.2183
     36  N         24.1320   20.3960   20.5700 N.3   191  VAL191     -0.1231
     37  CA        25.0140   19.3790   19.9560 C.3   191  VAL191      0.1692
     38  C         24.4220   17.9800   20.2070 C.2   191  VAL191      0.2593
     39  O         24.2060   17.5070   21.3390 O.2   191  VAL191     -0.2718
     40  CB        26.4380   19.5010   20.5360 C.3   191  VAL191      0.0266
     41  CG1       27.4140   18.5710   19.7850 C.3   191  VAL191      0.0020
     42  CG2       26.9270   20.9380   20.3860 C.3   191  VAL191      0.0020
     43  N         24.0230   17.3790   19.0780 N.am  192  SER192     -0.1938
     44  CA        23.2780   16.1300   19.1580 C.3   192  SER192      0.2055
     45  C         23.9910   14.9400   18.5650 C.2   192  SER192      0.2643
     46  O         24.3960   14.0580   19.3140 O.2   192  SER192     -0.2714
     47  CB        21.9240   16.3010   18.4790 C.3   192  SER192      0.2130
     48  OG        21.2370   15.0700   18.4970 O.3   192  SER192     -0.2179
     49  N         24.2570   14.8710   17.2680 N.am  193  TRP193     -0.1959
     50  CA        24.9030   13.7130   16.6820 C.3   193  TRP193      0.1771
     51  C         25.6460   13.9590   15.3480 C.2   193  TRP193      0.2620
     52  O         25.7510   15.0580   14.7860 O.2   193  TRP193     -0.2715
     53  CB        23.8450   12.5860   16.4870 C.3   193  TRP193      0.0590
     54  CG        22.7420   12.8100   15.4510 C.ar  193  TRP193      0.0006
     55  CD1       21.5780   13.4460   15.7690 C.ar  193  TRP193      0.0946
     56  CD2       22.7410   12.3630   14.1380 C.ar  193  TRP193      0.0152
     57  NE1       20.8370   13.3990   14.6910 N.ar  193  TRP193     -0.2442
     58  CE2       21.4760   12.7650   13.6930 C.ar  193  TRP193      0.0810
     59  CE3       23.6180   11.6890   13.2840 C.ar  193  TRP193      0.0012
     60  CZ2       21.0720   12.4960   12.3820 C.ar  193  TRP193      0.0191
     61  CZ3       23.1980   11.4360   11.9830 C.ar  193  TRP193      0.0001
     62  CH2       21.9440   11.8270   11.5330 C.ar  193  TRP193      0.0015
     63  N         26.2750   12.9160   14.8300 N.am  194  GLY194     -0.1940
     64  CA        26.9080   13.0140   13.5380 C.3   194  GLY194      0.2014
     65  C         27.5710   11.7060   13.2280 C.2   194  GLY194      0.2640
     66  O         27.5650   10.7920   14.0460 O.2   194  GLY194     -0.2714
     67  N         28.0990   11.6440   12.0300 N.am  195  SER195     -0.1935
     68  CA        28.8260   10.4520   11.6460 C.3   195  SER195      0.2055
     69  C         30.3180   10.6470   11.8840 C.2   195  SER195      0.2644
     70  O         30.9520   11.3390   11.0930 O.2   195  SER195     -0.2714
     71  CB        28.5000   10.1990   10.1930 C.3   195  SER195      0.2130
     72  OG        29.1380    9.0040    9.8340 O.3   195  SER195     -0.2179
     73  N         30.9420   10.1610   12.9650 N.am  196  GLY196     -0.1939
     74  CA        32.2990   10.5930   13.2900 C.3   196  GLY196      0.2014
     75  C         32.3750   12.1300   13.5260 C.2   196  GLY196      0.2639
     76  O         31.3790   12.8440   13.7630 O.2   196  GLY196     -0.2714
     77  N         33.5500   12.7260   13.3780 N.am  197  CYS197     -0.1967
     78  CA        33.7570   14.1660   13.5740 C.3   197  CYS197      0.1712
     79  C         34.5940   14.7640   12.4520 C.2   197  CYS197      0.2296
     80  O         35.5620   14.1580   12.0000 O.2   197  CYS197     -0.2864
     81  CB        34.5100   14.4590   14.8520 C.3   197  CYS197      0.0983
     82  SG        33.8540   13.5570   16.2710 S.3   197  CYS197     -0.0798
     83  N         29.9640   15.0330    6.0590 N.3   202  LYS202     -0.1231
     84  CA        29.3080   14.5690    7.2740 C.3   202  LYS202      0.1678
     85  C         29.3430   15.6330    8.3860 C.2   202  LYS202      0.2434
     86  O         30.0410   15.4740    9.4050 O.2   202  LYS202     -0.2733
     87  CB        29.9840   13.2460    7.7480 C.3   202  LYS202      0.0284
     88  CG        29.7530   12.0630    6.7940 C.3   202  LYS202      0.0035
     89  CD        28.2630   11.7220    6.7200 C.3   202  LYS202      0.0206
     90  CE        27.9680   10.7710    5.5690 C.3   202  LYS202      0.1093
     91  NZ        26.6060   10.2760    5.5890 N.3   202  LYS202     -0.1314
     92  N         28.6030   16.7600    8.1850 N.am  203  PRO203     -0.2718
     93  CA        28.5640   17.8490    9.1820 C.3   203  PRO203      0.1535
     94  C         27.8690   17.4960   10.5000 C.2   203  PRO203      0.2599
     95  O         27.1400   16.4920   10.5580 O.2   203  PRO203     -0.2715
     96  CB        27.8630   19.0140    8.4970 C.3   203  PRO203      0.0310
     97  CG        26.8780   18.3090    7.5980 C.3   203  PRO203      0.0237
     98  CD        27.7600   17.1910    7.0570 C.3   203  PRO203      0.0939
     99  N         28.0870   18.2450   11.5890 N.am  204  GLY204     -0.1941
    100  CA        27.3180   18.0510   12.7920 C.3   204  GLY204      0.2014
    101  C         25.8150   18.2630   12.6270 C.2   204  GLY204      0.2639
    102  O         25.3450   19.0900   11.8350 O.2   204  GLY204     -0.2714
    103  N         25.0490   17.4420   13.3720 N.am  205  VAL205     -0.1963
    104  CA        23.5850   17.5550   13.4520 C.3   205  VAL205      0.1727
    105  C         23.1840   17.9780   14.8840 C.2   205  VAL205      0.2616
    106  O         23.6880   17.5450   15.9250 O.2   205  VAL205     -0.2715
    107  CB        22.8970   16.2060   13.0660 C.3   205  VAL205      0.0290
    108  CG1       21.3820   16.3980   12.9840 C.3   205  VAL205      0.0023
    109  CG2       23.4420   15.7140   11.7220 C.3   205  VAL205      0.0023
    110  N         22.3040   18.9680   14.8930 N.am  206  TYR206     -0.1974
    111  CA        21.9160   19.6890   16.0780 C.3   206  TYR206      0.1639
    112  C         20.4230   19.6770   16.2910 C.2   206  TYR206      0.2290
    113  O         19.6310   19.7660   15.3490 O.2   206  TYR206     -0.2864
    114  CB        22.4420   21.1630   15.9530 C.3   206  TYR206      0.0560
    115  CG        23.9620   21.2020   15.7900 C.ar  206  TYR206     -0.0198
    116  CD1       24.7470   21.1840   16.9300 C.ar  206  TYR206     -0.0009
    117  CD2       24.5710   21.1730   14.5290 C.ar  206  TYR206     -0.0009
    118  CE1       26.1290   21.1360   16.8360 C.ar  206  TYR206      0.0417
    119  CE2       25.9510   21.1090   14.4190 C.ar  206  TYR206      0.0417
    120  CZ        26.7130   21.0920   15.5740 C.ar  206  TYR206      0.1957
    121  OH        28.0840   21.0230   15.5170 O.3   206  TYR206     -0.2866
@<TRIPOS>BOND
     1    90    91    1
     2    90    89    1
     3    83    84    1
     4    89    88    1
     5    88    87    1
     6    98    97    1
     7    98    92    1
     8    84    87    1
     9    84    85    1
    10    97    96    1
    11    92    85   am
    12    92    93    1
    13    85    86    2
    14    96    93    1
    15    93    94    1
    16    72    71    1
    17    71    68    1
    18    94    95    2
    19    94    99   am
    20    70    69    2
    21    62    61   ar
    22    62    60   ar
    23    99   100    1
    24    68    69    1
    25    68    67    1
    26   109   107    1
    27   102   101    2
    28    69    73   am
    29    61    59   ar
    30    80    79    2
    31    67    65   am
    32    60    58   ar
    33    79    78    1
    34     8     6   ar
    35   101   100    1
    36   101   103   am
    37    73    74    1
    38   108   107    1
    39     6     5    1
    40     6     7   ar
    41   107   104    1
    42     5     2    1
    43    65    64    1
    44    65    66    2
    45    59    56   ar
    46    74    75    1
    47     1     2    1
    48   103   104    1
    49    77    75   am
    50    77    78    1
    51   104   105    1
    52    75    76    2
    53    64    63    1
    54    78    81    1
    55    58    56   ar
    56    58    57   ar
    57     2     3    1
    58    56    54   ar
    59   119   117   ar
    60   119   120   ar
    61   117   115   ar
    62    57    55   ar
    63    52    51    2
    64    63    51   am
    65    81    82    1
    66   105   110   am
    67   105   106    2
    68   110   111    1
    69     3     9   am
    70     3     4    2
    71    51    50    1
    72   113   112    2
    73    54    55   ar
    74    54    53    1
    75   121   120    1
    76   120   118   ar
    77   115   114    1
    78   115   116   ar
    79     9    10    1
    80   114   111    1
    81   111   112    1
    82    82    20    1
    83    12    11    2
    84    53    50    1
    85    50    49    1
    86   118   116   ar
    87    14    13    1
    88    10    11    1
    89    10    13    1
    90    49    45   am
    91    11    15   am
    92    20    19    1
    93    19    16    1
    94    15    16    1
    95    47    48    1
    96    47    44    1
    97    16    17    1
    98    45    44    1
    99    45    46    2
   100    43    44    1
   101    43    38   am
   102    41    40    1
   103    17    21   am
   104    17    18    2
   105    37    38    1
   106    37    40    1
   107    37    36    1
   108    38    39    2
   109    21    22    1
   110    42    40    1
   111    25    22    1
   112    25    26    1
   113    22    23    1
   114    26    27    1
   115    35    34    1
   116    23    24    2
   117    30    31    1
   118    31    34    1
   119    31    32    1
   120    27    29   am
   121    27    28    2
   122    32    33    2
