@<TRIPOS>MOLECULE
tmp/1tnkA00.pdb
 106 105 0 0 0
SMALL
GASTEIGER

@<TRIPOS>ATOM
      1  N         20.2360   12.4170   25.1690 N.3    40  HIS40      -0.1241
      2  CA        21.1740   11.3000   25.1910 C.3    40  HIS40       0.1621
      3  C         22.2680   11.4730   26.2520 C.2    40  HIS40       0.2264
      4  O         23.0370   10.5600   26.5450 O.2    40  HIS40      -0.2867
      5  CB        21.7910   11.0920   23.7980 C.3    40  HIS40       0.0745
      6  CG        22.8710   12.0300   23.2810 C.ar   40  HIS40       0.0817
      7  ND1       22.7280   13.0430   22.4350 N.ar   40  HIS40      -0.2268
      8  CD2       24.2110   11.9630   23.6050 C.ar   40  HIS40       0.1154
      9  CE1       23.9020   13.5980   22.2470 C.ar   40  HIS40       0.1986
     10  NE2       24.7840   12.9380   22.9500 N.ar   40  HIS40      -0.2212
     11  N         34.3940   20.8270   13.3580 N.3   171  ASP171     -0.1225
     12  CA        33.1600   20.1830   13.8290 C.3   171  ASP171      0.1805
     13  C         33.1160   20.0180   15.3550 C.2   171  ASP171      0.2598
     14  O         34.1320   20.1210   16.0590 O.2   171  ASP171     -0.2718
     15  CB        33.0410   18.7900   13.1930 C.3   171  ASP171      0.1424
     16  CG        31.6980   18.1100   13.0870 C.2   171  ASP171      0.3668
     17  OD1       30.6860   18.6640   13.4710 O.co2 171  ASP171     -0.2456
     18  OD2       31.6450   16.9930   12.5910 O.co2 171  ASP171     -0.2456
     19  N         31.9400   19.7970   15.9400 N.am  172  SER172     -0.1938
     20  CA        31.8750   19.3750   17.3420 C.3   172  SER172      0.2055
     21  C         32.2060   17.8770   17.3930 C.2   172  SER172      0.2643
     22  O         32.3420   17.1710   16.3720 O.2   172  SER172     -0.2714
     23  CB        30.4920   19.6070   17.9210 C.3   172  SER172      0.2130
     24  OG        29.4850   18.9680   17.1470 O.3   172  SER172     -0.2179
     25  N         32.3770   17.2840   18.5510 N.am  173  CYS173     -0.1953
     26  CA        32.8180   15.8970   18.5900 C.3   173  CYS173      0.1843
     27  C         32.4280   15.2460   19.9160 C.2   173  CYS173      0.2625
     28  O         31.7660   15.8620   20.7520 O.2   173  CYS173     -0.2714
     29  CB        34.3360   15.8830   18.3690 C.3   173  CYS173      0.0997
     30  SG        35.0990   14.3410   17.8150 S.3   173  CYS173     -0.0797
     31  N         32.7990   14.0170   20.1940 N.am  174  GLN174     -0.1977
     32  CA        32.4340   13.3730   21.4390 C.3   174  GLN174      0.1601
     33  C         32.9480   14.1110   22.6870 C.2   174  GLN174      0.2287
     34  O         34.0980   14.5320   22.8180 O.2   174  GLN174     -0.2864
     35  CB        32.9400   11.9400   21.2390 C.3   174  GLN174      0.0394
     36  CG        33.8150   11.2190   22.2390 C.3   174  GLN174      0.0908
     37  CD        33.2130   11.0060   23.6410 C.2   174  GLN174      0.2608
     38  OE1       33.7670   11.4830   24.6480 O.2   174  GLN174     -0.2717
     39  NE2       32.0640   10.3610   23.8130 N.am  174  GLN174     -0.0878
     40  N         28.6330   16.8350   23.2560 N.3   177  SER177     -0.1217
     41  CA        27.1930   16.4980   23.4370 C.3   177  SER177      0.1889
     42  C         26.3920   17.3060   24.4340 C.2   177  SER177      0.2288
     43  O         26.8900   17.5320   25.5300 O.2   177  SER177     -0.2866
     44  CB        26.9970   15.0730   23.8840 C.3   177  SER177      0.2089
     45  OG        27.1170   14.2050   22.7750 O.3   177  SER177     -0.2183
     46  N         24.2430   20.3710   20.5710 N.3   191  VAL191     -0.1231
     47  CA        25.1080   19.3320   19.9660 C.3   191  VAL191      0.1692
     48  C         24.4740   17.9460   20.1590 C.2   191  VAL191      0.2593
     49  O         24.3040   17.4220   21.2710 O.2   191  VAL191     -0.2718
     50  CB        26.5160   19.3640   20.6120 C.3   191  VAL191      0.0266
     51  CG1       27.4110   18.3350   19.9220 C.3   191  VAL191      0.0020
     52  CG2       27.1090   20.7650   20.5190 C.3   191  VAL191      0.0020
     53  N         24.0950   17.3230   19.0550 N.am  192  SER192     -0.1938
     54  CA        23.3490   16.0850   19.1830 C.3   192  SER192      0.2055
     55  C         24.0090   14.8600   18.5960 C.2   192  SER192      0.2643
     56  O         24.2550   13.8840   19.3130 O.2   192  SER192     -0.2714
     57  CB        21.9780   16.2790   18.5500 C.3   192  SER192      0.2130
     58  OG        21.2620   15.0700   18.5030 O.3   192  SER192     -0.2179
     59  N         24.3360   14.8560   17.3120 N.am  193  TRP193     -0.1959
     60  CA        24.9210   13.6850   16.6740 C.3   193  TRP193      0.1771
     61  C         25.6200   13.9590   15.3320 C.2   193  TRP193      0.2620
     62  O         25.7040   15.0920   14.8400 O.2   193  TRP193     -0.2715
     63  CB        23.8520   12.5820   16.4510 C.3   193  TRP193      0.0590
     64  CG        22.7400   12.8170   15.4250 C.ar  193  TRP193      0.0006
     65  CD1       21.5900   13.4720   15.7510 C.ar  193  TRP193      0.0946
     66  CD2       22.7030   12.3440   14.1290 C.ar  193  TRP193      0.0152
     67  NE1       20.8130   13.4080   14.6890 N.ar  193  TRP193     -0.2442
     68  CE2       21.4320   12.7500   13.7010 C.ar  193  TRP193      0.0810
     69  CE3       23.5550   11.6430   13.2810 C.ar  193  TRP193      0.0012
     70  CZ2       20.9760   12.4760   12.4320 C.ar  193  TRP193      0.0191
     71  CZ3       23.0860   11.3710   12.0030 C.ar  193  TRP193      0.0001
     72  CH2       21.8180   11.7800   11.5880 C.ar  193  TRP193      0.0015
     73  N         26.2070   12.9160   14.7310 N.am  194  GLY194     -0.1954
     74  CA        26.8810   13.0630   13.4540 C.3   194  GLY194      0.1869
     75  C         27.6130   11.7840   13.1230 C.2   194  GLY194      0.2309
     76  O         27.7090   10.8980   13.9720 O.2   194  GLY194     -0.2863
     77  N         30.9250   10.1700   12.9240 N.3   196  GLY196     -0.1210
     78  CA        32.2680   10.6150   13.3030 C.3   196  GLY196      0.1956
     79  C         32.3640   12.1540   13.5410 C.2   196  GLY196      0.2612
     80  O         31.3790   12.8730   13.8060 O.2   196  GLY196     -0.2717
     81  N         33.5440   12.7320   13.3900 N.am  197  CYS197     -0.1970
     82  CA        33.7650   14.1600   13.6010 C.3   197  CYS197      0.1712
     83  C         34.6510   14.7560   12.5350 C.2   197  CYS197      0.2296
     84  O         35.6680   14.1730   12.1570 O.2   197  CYS197     -0.2864
     85  CB        34.4830   14.4720   14.8910 C.3   197  CYS197      0.0983
     86  SG        33.9230   13.5570   16.3420 S.3   197  CYS197     -0.0798
     87  N         29.9920   14.9920    6.1120 N.3   202  LYS202     -0.1231
     88  CA        29.3520   14.5240    7.3400 C.3   202  LYS202      0.1678
     89  C         29.4140   15.6050    8.4460 C.2   202  LYS202      0.2434
     90  O         30.1720   15.4770    9.4280 O.2   202  LYS202     -0.2733
     91  CB        30.0380   13.2270    7.8020 C.3   202  LYS202      0.0284
     92  CG        29.8160   12.0690    6.8080 C.3   202  LYS202      0.0035
     93  CD        28.3220   11.6980    6.7560 C.3   202  LYS202      0.0206
     94  CE        27.9670   10.7190    5.6260 C.3   202  LYS202      0.1093
     95  NZ        26.6200   10.1900    5.7690 N.3   202  LYS202     -0.1314
     96  N         28.6550   16.7310    8.2610 N.am  203  PRO203     -0.2718
     97  CA        28.6410   17.8410    9.2420 C.3   203  PRO203      0.1535
     98  C         27.9570   17.4980   10.5620 C.2   203  PRO203      0.2599
     99  O         27.3300   16.4340   10.6590 O.2   203  PRO203     -0.2715
    100  CB        27.9420   19.0070    8.5540 C.3   203  PRO203      0.0310
    101  CG        26.8830   18.2970    7.7500 C.3   203  PRO203      0.0237
    102  CD        27.7330   17.1480    7.1880 C.3   203  PRO203      0.0939
    103  N         28.0810   18.3430   11.5840 N.am  204  GLY204     -0.1955
    104  CA        27.3730   18.1280   12.8180 C.3   204  GLY204      0.1869
    105  C         25.8580   18.2340   12.7020 C.2   204  GLY204      0.2309
    106  O         25.3790   19.0510   11.9180 O.2   204  GLY204     -0.2863
@<TRIPOS>BOND
     1    94    95    1
     2    94    93    1
     3    87    88    1
     4    93    92    1
     5    92    91    1
     6   102   101    1
     7   102    96    1
     8    88    91    1
     9    88    89    1
    10   101   100    1
    11    96    89   am
    12    96    97    1
    13    89    90    2
    14   100    97    1
    15    97    98    1
    16    98    99    2
    17    98   103   am
    18   103   104    1
    19    72    71   ar
    20    72    70   ar
    21   106   105    2
    22    71    69   ar
    23    84    83    2
    24    70    68   ar
    25    83    82    1
    26    18    16   ar
    27   105   104    1
    28    77    78    1
    29    16    15    1
    30    16    17   ar
    31    75    74    1
    32    75    76    2
    33    15    12    1
    34    69    66   ar
    35    78    79    1
    36    11    12    1
    37    81    79   am
    38    81    82    1
    39    74    73    1
    40    79    80    2
    41    82    85    1
    42    68    66   ar
    43    68    67   ar
    44    12    13    1
    45    66    64   ar
    46    67    65   ar
    47    73    61   am
    48    62    61    2
    49    85    86    1
    50    61    60    1
    51    13    19   am
    52    13    14    2
    53    64    65   ar
    54    64    63    1
    55    19    20    1
    56    86    30    1
    57    22    21    2
    58    63    60    1
    59    60    59    1
    60    24    23    1
    61    59    55   am
    62    20    21    1
    63    20    23    1
    64    21    25   am
    65    30    29    1
    66    29    26    1
    67    58    57    1
    68    57    54    1
    69    25    26    1
    70    26    27    1
    71    55    54    1
    72    55    56    2
    73    53    54    1
    74    53    48   am
    75    27    31   am
    76    27    28    2
    77    51    50    1
    78    47    48    1
    79    47    46    1
    80    47    50    1
    81    48    49    2
    82    31    32    1
    83    52    50    1
    84    35    32    1
    85    35    36    1
    86    32    33    1
    87    36    37    1
    88     9     7   ar
    89     9    10   ar
    90     7     6   ar
    91    33    34    2
    92    45    44    1
    93    10     8   ar
    94    40    41    1
    95     6     8   ar
    96     6     5    1
    97    41    44    1
    98    41    42    1
    99    37    39   am
   100    37    38    2
   101     5     2    1
   102    42    43    2
   103     1     2    1
   104     2     3    1
   105     3     4    2
