@<TRIPOS>MOLECULE
tmp/1tnlA00.pdb
 108 106 0 0 0
SMALL
GASTEIGER

@<TRIPOS>ATOM
      1  N         34.3870   20.8090   13.3600 N.3   171  ASP171     -0.1225
      2  CA        33.1660   20.1350   13.8290 C.3   171  ASP171      0.1805
      3  C         33.0920   20.0100   15.3480 C.2   171  ASP171      0.2598
      4  O         34.0900   20.1690   16.0730 O.2   171  ASP171     -0.2718
      5  CB        33.0720   18.7070   13.2650 C.3   171  ASP171      0.1424
      6  CG        31.6980   18.0970   13.0290 C.2   171  ASP171      0.3668
      7  OD1       30.6750   18.6740   13.3550 O.co2 171  ASP171     -0.2456
      8  OD2       31.6260   17.0080   12.4810 O.co2 171  ASP171     -0.2456
      9  N         31.9090   19.7500   15.8830 N.am  172  SER172     -0.1938
     10  CA        31.8570   19.3350   17.2880 C.3   172  SER172      0.2055
     11  C         32.1690   17.8410   17.3590 C.2   172  SER172      0.2643
     12  O         32.2370   17.1060   16.3560 O.2   172  SER172     -0.2714
     13  CB        30.4910   19.5960   17.9050 C.3   172  SER172      0.2130
     14  OG        29.4120   19.0340   17.1830 O.3   172  SER172     -0.2179
     15  N         32.4140   17.2840   18.5180 N.am  173  CYS173     -0.1953
     16  CA        32.8440   15.9000   18.5550 C.3   173  CYS173      0.1843
     17  C         32.4740   15.2490   19.8740 C.2   173  CYS173      0.2625
     18  O         31.7650   15.8490   20.6760 O.2   173  CYS173     -0.2714
     19  CB        34.3460   15.8730   18.3260 C.3   173  CYS173      0.0997
     20  SG        35.0190   14.2900   17.7720 S.3   173  CYS173     -0.0797
     21  N         32.9170   14.0380   20.1910 N.am  174  GLN174     -0.1977
     22  CA        32.4920   13.3640   21.4040 C.3   174  GLN174      0.1601
     23  C         32.9310   14.0780   22.6820 C.2   174  GLN174      0.2287
     24  O         34.0700   14.4900   22.8810 O.2   174  GLN174     -0.2864
     25  CB        33.0120   11.9430   21.1860 C.3   174  GLN174      0.0394
     26  CG        33.6770   11.0970   22.2420 C.3   174  GLN174      0.0908
     27  CD        32.8700   10.8280   23.5020 C.2   174  GLN174      0.2608
     28  OE1       33.2110   11.3500   24.5730 O.2   174  GLN174     -0.2717
     29  NE2       31.7920   10.0530   23.4750 N.am  174  GLN174     -0.0878
     30  N         28.6170   16.8360   23.1990 N.3   177  SER177     -0.1217
     31  CA        27.1940   16.4760   23.3860 C.3   177  SER177      0.1889
     32  C         26.4150   17.2600   24.4140 C.2   177  SER177      0.2288
     33  O         26.9070   17.4770   25.5110 O.2   177  SER177     -0.2866
     34  CB        27.0160   15.0290   23.8060 C.3   177  SER177      0.2089
     35  OG        27.0690   14.2140   22.6490 O.3   177  SER177     -0.2183
     36  N         24.2110   20.3520   20.6590 N.3   191  VAL191     -0.1231
     37  CA        25.0820   19.3290   20.0380 C.3   191  VAL191      0.1692
     38  C         24.4750   17.9450   20.2620 C.2   191  VAL191      0.2593
     39  O         24.2490   17.4550   21.3810 O.2   191  VAL191     -0.2718
     40  CB        26.5220   19.4110   20.6280 C.3   191  VAL191      0.0266
     41  CG1       27.4450   18.4100   19.9120 C.3   191  VAL191      0.0020
     42  CG2       27.0710   20.8160   20.4510 C.3   191  VAL191      0.0020
     43  N         24.1390   17.3380   19.1410 N.am  192  SER192     -0.1938
     44  CA        23.3790   16.1040   19.2220 C.3   192  SER192      0.2055
     45  C         24.0710   14.9000   18.6200 C.2   192  SER192      0.2643
     46  O         24.4520   13.9790   19.3550 O.2   192  SER192     -0.2714
     47  CB        22.0130   16.3270   18.5510 C.3   192  SER192      0.2130
     48  OG        21.2310   15.1590   18.4640 O.3   192  SER192     -0.2179
     49  N         24.3320   14.8700   17.3200 N.am  193  TRP193     -0.1959
     50  CA        24.9440   13.7080   16.6960 C.3   193  TRP193      0.1771
     51  C         25.6380   13.9680   15.3540 C.2   193  TRP193      0.2620
     52  O         25.6330   15.0710   14.8090 O.2   193  TRP193     -0.2715
     53  CB        23.8960   12.5910   16.5000 C.3   193  TRP193      0.0590
     54  CG        22.8040   12.8020   15.4440 C.ar  193  TRP193      0.0006
     55  CD1       21.6400   13.4460   15.7540 C.ar  193  TRP193      0.0946
     56  CD2       22.8030   12.3190   14.1410 C.ar  193  TRP193      0.0152
     57  NE1       20.8920   13.3650   14.6770 N.ar  193  TRP193     -0.2442
     58  CE2       21.5360   12.7060   13.6940 C.ar  193  TRP193      0.0810
     59  CE3       23.6620   11.6260   13.2910 C.ar  193  TRP193      0.0012
     60  CZ2       21.1210   12.4080   12.4050 C.ar  193  TRP193      0.0191
     61  CZ3       23.2340   11.3360   12.0030 C.ar  193  TRP193      0.0001
     62  CH2       21.9800   11.7220   11.5650 C.ar  193  TRP193      0.0015
     63  N         26.3150   12.9710   14.7940 N.am  194  GLY194     -0.1954
     64  CA        26.9760   13.1250   13.5110 C.3   194  GLY194      0.1869
     65  C         27.6310   11.8200   13.1430 C.2   194  GLY194      0.2309
     66  O         27.6290   10.8690   13.9320 O.2   194  GLY194     -0.2863
     67  N         30.9310   10.1560   12.8320 N.3   196  GLY196     -0.1210
     68  CA        32.3010   10.5610   13.1800 C.3   196  GLY196      0.1956
     69  C         32.4010   12.0880   13.4560 C.2   196  GLY196      0.2612
     70  O         31.3990   12.7810   13.7180 O.2   196  GLY196     -0.2717
     71  N         33.5760   12.6900   13.3560 N.am  197  CYS197     -0.1970
     72  CA        33.7360   14.1290   13.5530 C.3   197  CYS197      0.1712
     73  C         34.6280   14.7190   12.4820 C.2   197  CYS197      0.2296
     74  O         35.6490   14.1300   12.0990 O.2   197  CYS197     -0.2864
     75  CB        34.4180   14.4970   14.8430 C.3   197  CYS197      0.0983
     76  SG        33.8690   13.5380   16.2710 S.3   197  CYS197     -0.0798
     77  N         30.0350   15.0720    6.1500 N.3   202  LYS202     -0.1245
     78  CA        29.3540   14.5650    7.3390 C.3   202  LYS202      0.1561
     79  C         29.3590   15.6250    8.4350 C.2   202  LYS202      0.2260
     80  O         30.0230   15.4630    9.4770 O.2   202  LYS202     -0.2867
     81  CB        30.0420   13.2640    7.8090 C.3   202  LYS202      0.0271
     82  CG        29.7920   12.0680    6.8660 C.3   202  LYS202      0.0035
     83  CD        28.2910   11.7100    6.7870 C.3   202  LYS202      0.0206
     84  CE        28.0180   10.6420    5.7320 C.3   202  LYS202      0.1093
     85  NZ        26.6300   10.2050    5.6650 N.3   202  LYS202     -0.1314
     86  N         28.0950   18.2430   11.6220 N.3   204  GLY204     -0.1210
     87  CA        27.3700   17.9710   12.8340 C.3   204  GLY204      0.1956
     88  C         25.8580   18.2010   12.6950 C.2   204  GLY204      0.2612
     89  O         25.4120   19.0670   11.9440 O.2   204  GLY204     -0.2717
     90  N         25.0660   17.3770   13.4110 N.am  205  VAL205     -0.1965
     91  CA        23.6080   17.4980   13.4960 C.3   205  VAL205      0.1727
     92  C         23.2180   17.9240   14.9190 C.2   205  VAL205      0.2616
     93  O         23.7190   17.4690   15.9450 O.2   205  VAL205     -0.2715
     94  CB        22.9200   16.1570   13.1260 C.3   205  VAL205      0.0290
     95  CG1       21.4010   16.3480   13.0620 C.3   205  VAL205      0.0023
     96  CG2       23.4420   15.6680   11.7800 C.3   205  VAL205      0.0023
     97  N         22.3580   18.9340   14.9330 N.am  206  TYR206     -0.1974
     98  CA        21.9530   19.6760   16.1090 C.3   206  TYR206      0.1639
     99  C         20.4450   19.6610   16.3660 C.2   206  TYR206      0.2290
    100  O         19.6280   19.7230   15.4410 O.2   206  TYR206     -0.2864
    101  CB        22.4450   21.1460   15.9600 C.3   206  TYR206      0.0560
    102  CG        23.9740   21.1750   15.8170 C.ar  206  TYR206     -0.0198
    103  CD1       24.7590   21.1910   16.9570 C.ar  206  TYR206     -0.0009
    104  CD2       24.5890   21.0970   14.5700 C.ar  206  TYR206     -0.0009
    105  CE1       26.1440   21.1250   16.8690 C.ar  206  TYR206      0.0417
    106  CE2       25.9760   21.0140   14.4770 C.ar  206  TYR206      0.0417
    107  CZ        26.7460   21.0260   15.6260 C.ar  206  TYR206      0.1957
    108  OH        28.1200   20.8860   15.5710 O.3   206  TYR206     -0.2866
@<TRIPOS>BOND
     1    85    84    1
     2    84    83    1
     3    77    78    1
     4    83    82    1
     5    82    81    1
     6    78    81    1
     7    78    79    1
     8    79    80    2
     9    62    61   ar
    10    62    60   ar
    11    86    87    1
    12    96    94    1
    13    89    88    2
    14    61    59   ar
    15    74    73    2
    16    60    58   ar
    17     8     6   ar
    18    73    72    1
    19    88    87    1
    20    88    90   am
    21    67    68    1
    22     6     5    1
    23     6     7   ar
    24    95    94    1
    25    94    91    1
    26    65    64    1
    27    65    66    2
    28    68    69    1
    29     5     2    1
    30    59    56   ar
    31    71    69   am
    32    71    72    1
    33     1     2    1
    34    90    91    1
    35    69    70    2
    36    91    92    1
    37    64    63    1
    38    72    75    1
    39    58    56   ar
    40    58    57   ar
    41     2     3    1
    42    56    54   ar
    43   106   104   ar
    44   106   107   ar
    45   104   102   ar
    46    57    55   ar
    47    63    51   am
    48    52    51    2
    49    75    76    1
    50    92    97   am
    51    92    93    2
    52    97    98    1
    53     3     9   am
    54     3     4    2
    55    51    50    1
    56   100    99    2
    57    54    55   ar
    58    54    53    1
    59   108   107    1
    60   107   105   ar
    61   102   101    1
    62   102   103   ar
    63     9    10    1
    64   101    98    1
    65    98    99    1
    66    76    20    1
    67    12    11    2
    68    53    50    1
    69    50    49    1
    70   105   103   ar
    71    14    13    1
    72    10    11    1
    73    10    13    1
    74    49    45   am
    75    11    15   am
    76    20    19    1
    77    19    16    1
    78    48    47    1
    79    15    16    1
    80    47    44    1
    81    16    17    1
    82    45    44    1
    83    45    46    2
    84    43    44    1
    85    43    38   am
    86    17    21   am
    87    17    18    2
    88    41    40    1
    89    37    38    1
    90    37    40    1
    91    37    36    1
    92    21    22    1
    93    38    39    2
    94    42    40    1
    95    25    22    1
    96    25    26    1
    97    22    23    1
    98    26    27    1
    99    35    34    1
   100    23    24    2
   101    30    31    1
   102    31    34    1
   103    31    32    1
   104    29    27   am
   105    27    28    2
   106    32    33    2
