@<TRIPOS>MOLECULE
tmp/1tnuJ00.pdb
 206 200 0 0 0
SMALL
GASTEIGER

@<TRIPOS>ATOM
      1  N         14.0740   74.2620  103.5450 N.3    25  SER25      -0.1217
      2  CA        14.2130   74.1710  104.9880 C.3    25  SER25       0.1889
      3  C         14.6670   75.4780  105.6270 C.2    25  SER25       0.2288
      4  O         14.6820   75.6010  106.8490 O.2    25  SER25      -0.2866
      5  CB        15.1930   73.0610  105.3450 C.3    25  SER25       0.2089
      6  OG        16.4930   73.4010  104.9090 O.3    25  SER25      -0.2183
      7  N         13.7720   80.7680  108.2470 N.3    29  SER29      -0.1217
      8  CA        15.0050   81.4410  108.6690 C.3    29  SER29       0.1889
      9  C         15.5380   82.3550  107.5780 C.2    29  SER29       0.2288
     10  O         16.7120   82.7470  107.5940 O.2    29  SER29      -0.2866
     11  CB        16.0840   80.4150  109.0260 C.3    29  SER29       0.2089
     12  OG        15.6290   79.5480  110.0470 O.3    29  SER29      -0.2183
     13  N         17.5290   85.4670  108.5230 N.3    32  THR32      -0.1218
     14  CA        18.9300   85.3460  108.9140 C.3    32  THR32       0.1862
     15  C         19.7830   85.0900  107.6730 C.2    32  THR32       0.2287
     16  O         20.9790   85.3860  107.6640 O.2    32  THR32      -0.2866
     17  CB        19.1820   84.2200  109.9720 C.3    32  THR32       0.1770
     18  OG1       19.2390   82.9520  109.3180 O.3    32  THR32      -0.2211
     19  CG2       18.0770   84.2000  111.0240 C.3    32  THR32       0.0375
     20  N         23.0040   87.3100  106.5820 N.3    36  PHE36      -0.1241
     21  CA        24.3200   86.8630  106.1300 C.3    36  PHE36       0.1605
     22  C         24.7310   87.5840  104.8500 C.2    36  PHE36       0.2264
     23  O         25.8910   87.9740  104.6780 O.2    36  PHE36      -0.2867
     24  CB        24.3200   85.3510  105.8610 C.3    36  PHE36       0.0534
     25  CG        24.2370   84.5060  107.1000 C.ar   36  PHE36      -0.0203
     26  CD1       23.6190   83.2590  107.0610 C.ar   36  PHE36      -0.0042
     27  CD2       24.7800   84.9480  108.3050 C.ar   36  PHE36      -0.0042
     28  CE1       23.5410   82.4730  108.1950 C.ar   36  PHE36      -0.0003
     29  CE2       24.7040   84.1620  109.4430 C.ar   36  PHE36      -0.0003
     30  CZ        24.0830   82.9240  109.3840 C.ar   36  PHE36      -0.0000
     31  N         10.4360   85.2720  116.6450 N.3   104  HIS104     -0.1241
     32  CA        11.4390   84.2530  116.9080 C.3   104  HIS104      0.1621
     33  C         12.6760   85.0460  117.2860 C.2   104  HIS104      0.2264
     34  O         13.1480   85.8850  116.5110 O.2   104  HIS104     -0.2867
     35  CB        11.6880   83.4100  115.6530 C.3   104  HIS104      0.0745
     36  CG        12.6760   82.3050  115.8530 C.ar  104  HIS104      0.0817
     37  ND1       14.0250   82.5330  116.0250 N.ar  104  HIS104     -0.2268
     38  CD2       12.5120   80.9630  115.9090 C.ar  104  HIS104      0.1154
     39  CE1       14.6470   81.3790  116.1760 C.ar  104  HIS104      0.1986
     40  NE2       13.7520   80.4120  116.1100 N.ar  104  HIS104     -0.2212
     41  N         15.8540   84.7070  117.2240 N.3   106  ALA106     -0.1231
     42  CA        16.9690   84.8340  116.2840 C.3   106  ALA106      0.1694
     43  C         16.5870   85.7500  115.1220 C.2   106  ALA106      0.2591
     44  O         17.4490   86.3340  114.4600 O.2   106  ALA106     -0.2718
     45  CB        17.3820   83.4590  115.7610 C.3   106  ALA106      0.0304
     46  N         15.2870   85.8780  114.8820 N.am  107  MET107     -0.1979
     47  CA        14.8020   86.7240  113.7980 C.3   107  MET107      0.1605
     48  C         14.6950   88.1750  114.2680 C.2   107  MET107      0.2287
     49  O         14.9760   89.1050  113.5130 O.2   107  MET107     -0.2864
     50  CB        13.4530   86.2000  113.2960 C.3   107  MET107      0.0413
     51  CG        13.4920   84.7360  112.8560 C.3   107  MET107      0.0598
     52  SD        14.8540   84.3250  111.7030 S.3   107  MET107     -0.1393
     53  CE        15.2650   82.6800  112.2310 C.3   107  MET107      0.0692
     54  N         13.5620   74.5930  122.3840 N.3   152  GLU152     -0.1245
     55  CA        14.7250   74.2100  123.1640 C.3   152  GLU152      0.1567
     56  C         15.2950   75.5300  123.6890 C.2   152  GLU152      0.2260
     57  O         14.9780   76.6010  123.1580 O.2   152  GLU152     -0.2867
     58  CB        15.7540   73.4950  122.2760 C.3   152  GLU152      0.0388
     59  CG        16.4590   74.3850  121.2590 C.3   152  GLU152      0.1160
     60  CD        15.6690   74.6040  119.9790 C.2   152  GLU152      0.3649
     61  OE1       14.4390   74.3770  119.9560 O.co2 152  GLU152     -0.2457
     62  OE2       16.2920   75.0220  118.9860 O.co2 152  GLU152     -0.2457
     63  N         22.7240   79.8480  122.5810 N.3   156  ARG156     -0.1231
     64  CA        22.4810   80.5230  121.3130 C.3   156  ARG156      0.1694
     65  C         21.4940   81.6690  121.5030 C.2   156  ARG156      0.2592
     66  O         21.7180   82.7850  121.0220 O.2   156  ARG156     -0.2718
     67  CB        21.9020   79.5600  120.2730 C.3   156  ARG156      0.0321
     68  CG        22.8300   78.4810  119.7580 C.3   156  ARG156      0.0489
     69  CD        22.0460   77.5480  118.8450 C.3   156  ARG156      0.2205
     70  NE        20.9280   76.9140  119.5500 N.pl3 156  ARG156     -0.0865
     71  CZ        19.7690   76.5700  118.9920 C.cat 156  ARG156      0.5346
     72  NH1       19.5460   76.7910  117.7070 N.pl3 156  ARG156      0.1354
     73  NH2       18.8230   76.0120  119.7260 N.pl3 156  ARG156      0.1354
     74  N         20.4040   81.3870  122.2100 N.am  157  PHE157     -0.1976
     75  CA        19.3660   82.3840  122.4250 C.3   157  PHE157      0.1639
     76  C         19.7080   83.4210  123.4880 C.2   157  PHE157      0.2290
     77  O         19.1300   84.5050  123.5060 O.2   157  PHE157     -0.2864
     78  CB        18.0420   81.6620  122.7110 C.3   157  PHE157      0.0560
     79  CG        17.6360   80.7140  121.6030 C.ar  157  PHE157     -0.0200
     80  CD1       16.9540   79.5370  121.8820 C.ar  157  PHE157     -0.0042
     81  CD2       17.9960   80.9800  120.2750 C.ar  157  PHE157     -0.0042
     82  CE1       16.6410   78.6300  120.8600 C.ar  157  PHE157     -0.0003
     83  CE2       17.6900   80.0830  119.2480 C.ar  157  PHE157     -0.0003
     84  CZ        17.0130   78.9050  119.5410 C.ar  157  PHE157     -0.0000
     85  N         21.2990   85.9740  121.4810 N.3   160  CYS160     -0.1235
     86  CA        20.3110   86.7160  120.7080 C.3   160  CYS160      0.1677
     87  C         19.6610   87.7820  121.5750 C.2   160  CYS160      0.2270
     88  O         19.5110   88.9240  121.1500 O.2   160  CYS160     -0.2867
     89  CB        19.2300   85.7760  120.1590 C.3   160  CYS160      0.0956
     90  SG        19.7620   84.7390  118.7690 S.3   160  CYS160     -0.0801
     91  N         36.5620   73.9030  110.7990 N.3   252  ASP252     -0.1239
     92  CA        35.4010   74.3520  110.0570 C.3   252  ASP252      0.1674
     93  C         35.5240   75.8700  109.9050 C.2   252  ASP252      0.2266
     94  O         35.6450   76.6010  110.8880 O.2   252  ASP252     -0.2867
     95  CB        34.1500   73.9650  110.8730 C.3   252  ASP252      0.1410
     96  CG        32.8630   74.5100  110.3000 C.2   252  ASP252      0.3668
     97  OD1       32.8980   75.5180  109.5540 O.co2 252  ASP252     -0.2456
     98  OD2       31.8080   73.9310  110.6270 O.co2 252  ASP252     -0.2456
     99  N         33.6100   78.4500  109.6370 N.3   254  CYS254     -0.1221
    100  CA        32.8730   79.3750  110.4940 C.3   254  CYS254      0.1808
    101  C         33.4590   79.5810  111.8900 C.2   254  CYS254      0.2601
    102  O         33.1570   80.5860  112.5450 O.2   254  CYS254     -0.2717
    103  CB        31.3870   78.9840  110.5870 C.3   254  CYS254      0.0970
    104  SG        30.9680   77.5170  111.5460 S.3   254  CYS254     -0.0800
    105  N         34.3080   78.6590  112.3400 N.am  255  TYR255     -0.1976
    106  CA        34.9180   78.7970  113.6630 C.3   255  TYR255      0.1639
    107  C         36.0300   79.8310  113.6840 C.2   255  TYR255      0.2290
    108  O         36.4540   80.2730  114.7540 O.2   255  TYR255     -0.2864
    109  CB        35.4000   77.4360  114.1810 C.3   255  TYR255      0.0560
    110  CG        34.2210   76.6340  114.6420 C.ar  255  TYR255     -0.0198
    111  CD1       33.5290   77.0000  115.7960 C.ar  255  TYR255     -0.0009
    112  CD2       33.6790   75.6380  113.8360 C.ar  255  TYR255     -0.0009
    113  CE1       32.3240   76.4100  116.1290 C.ar  255  TYR255      0.0417
    114  CE2       32.4670   75.0460  114.1550 C.ar  255  TYR255      0.0417
    115  CZ        31.7960   75.4440  115.3000 C.ar  255  TYR255      0.1957
    116  OH        30.5680   74.9170  115.5810 O.3   255  TYR255     -0.2866
    117  N         33.6500   82.2950  115.1220 N.3   258  TRP258     -0.1241
    118  CA        33.1430   81.9250  116.4490 C.3   258  TRP258      0.1605
    119  C         34.2510   81.9880  117.5010 C.2   258  TRP258      0.2264
    120  O         34.1270   82.6900  118.5040 O.2   258  TRP258     -0.2867
    121  CB        32.5460   80.5070  116.4370 C.3   258  TRP258      0.0550
    122  CG        31.3120   80.3290  115.5950 C.ar  258  TRP258      0.0003
    123  CD1       31.1130   79.3830  114.6240 C.ar  258  TRP258      0.0946
    124  CD2       30.1020   81.0870  115.6640 C.ar  258  TRP258      0.0152
    125  NE1       29.8550   79.5050  114.0860 N.ar  258  TRP258     -0.2442
    126  CE2       29.2110   80.5410  114.7070 C.ar  258  TRP258      0.0810
    127  CE3       29.6800   82.1700  116.4380 C.ar  258  TRP258      0.0012
    128  CZ2       27.9260   81.0430  114.5060 C.ar  258  TRP258      0.0191
    129  CZ3       28.3990   82.6730  116.2410 C.ar  258  TRP258      0.0001
    130  CH2       27.5360   82.1060  115.2810 C.ar  258  TRP258      0.0015
    131  N         32.3220   74.9630  104.6400 N.3   294  LYS294     -0.1231
    132  CA        32.9040   74.6410  105.9340 C.3   294  LYS294      0.1693
    133  C         34.2500   73.9730  105.7220 C.2   294  LYS294      0.2592
    134  O         35.1930   74.2010  106.4740 O.2   294  LYS294     -0.2718
    135  CB        31.9700   73.7410  106.7610 C.3   294  LYS294      0.0285
    136  CG        31.8440   72.3030  106.2860 C.3   294  LYS294      0.0035
    137  CD        30.8370   71.5040  107.1340 C.3   294  LYS294      0.0206
    138  CE        31.2770   71.3770  108.5960 C.3   294  LYS294      0.1093
    139  NZ        30.3240   70.5870  109.4470 N.3   294  LYS294     -0.1314
    140  N         34.3350   73.1630  104.6760 N.am  295  TRP295     -0.1976
    141  CA        35.5690   72.4570  104.3550 C.3   295  TRP295      0.1640
    142  C         35.9390   72.6970  102.9080 C.2   295  TRP295      0.2290
    143  O         35.0940   73.0660  102.0960 O.2   295  TRP295     -0.2864
    144  CB        35.4190   70.9500  104.5550 C.3   295  TRP295      0.0576
    145  CG        35.0130   70.5370  105.9220 C.ar  295  TRP295      0.0006
    146  CD1       35.4550   71.0530  107.0970 C.ar  295  TRP295      0.0946
    147  CD2       34.1200   69.4720  106.2590 C.ar  295  TRP295      0.0152
    148  NE1       34.8970   70.3750  108.1510 N.ar  295  TRP295     -0.2442
    149  CE2       34.0740   69.3970  107.6640 C.ar  295  TRP295      0.0810
    150  CE3       33.3570   68.5710  105.5080 C.ar  295  TRP295      0.0012
    151  CZ2       33.2920   68.4570  108.3390 C.ar  295  TRP295      0.0191
    152  CZ3       32.5780   67.6370  106.1790 C.ar  295  TRP295      0.0001
    153  CH2       32.5560   67.5870  107.5810 C.ar  295  TRP295      0.0015
    154  N         33.9930   71.6390   99.1490 N.3   298  SER298     -0.1202
    155  CA        32.6720   71.3800   99.7060 C.3   298  SER298      0.2020
    156  C         31.8250   72.5310   99.1540 C.2   298  SER298      0.2618
    157  O         32.3750   73.5550   98.7640 O.2   298  SER298     -0.2717
    158  CB        32.7590   71.4150  101.2390 C.3   298  SER298      0.2103
    159  OG        31.5530   71.0310  101.8740 O.3   298  SER298     -0.2182
    160  N         30.5070   72.3850   99.1010 N.am  299  HIS299     -0.1975
    161  CA        29.6730   73.4510   98.5470 C.3   299  HIS299      0.1656
    162  C         29.5140   74.6400   99.4820 C.2   299  HIS299      0.2291
    163  O         29.3130   74.4820  100.6780 O.2   299  HIS299     -0.2864
    164  CB        28.3110   72.8850   98.1360 C.3   299  HIS299      0.0771
    165  CG        28.3900   71.9140   96.9940 C.ar  299  HIS299      0.0820
    166  ND1       27.3280   71.1180   96.6120 N.ar  299  HIS299     -0.2267
    167  CD2       29.4090   71.6100   96.1520 C.ar  299  HIS299      0.1154
    168  CE1       27.6900   70.3670   95.5850 C.ar  299  HIS299      0.1986
    169  NE2       28.9480   70.6470   95.2860 N.ar  299  HIS299     -0.2212
    170  N         27.8810   78.1520  101.1770 N.3   301  ASP301     -0.1239
    171  CA        26.5650   78.5760  101.6370 C.3   301  ASP301      0.1674
    172  C         26.7000   79.9690  102.2410 C.2   301  ASP301      0.2266
    173  O         27.8110   80.4350  102.5040 O.2   301  ASP301     -0.2867
    174  CB        25.9760   77.5770  102.6520 C.3   301  ASP301      0.1410
    175  CG        26.8740   77.3310  103.8420 C.2   301  ASP301      0.3668
    176  OD1       27.0900   78.2690  104.6290 O.co2 301  ASP301     -0.2456
    177  OD2       27.3600   76.1930  103.9980 O.co2 301  ASP301     -0.2456
    178  N         26.0350   81.1050  105.2260 N.3   303  LEU303     -0.1231
    179  CA        26.6120   81.1480  106.5640 C.3   303  LEU303      0.1693
    180  C         28.1440   81.1100  106.5390 C.2   303  LEU303      0.2592
    181  O         28.8030   81.9450  107.1570 O.2   303  LEU303     -0.2718
    182  CB        26.0550   80.0010  107.4190 C.3   303  LEU303      0.0284
    183  CG        26.5170   79.9220  108.8770 C.3   303  LEU303      0.0019
    184  CD1       25.4300   79.2820  109.7070 C.3   303  LEU303      0.0001
    185  CD2       27.8260   79.1300  108.9850 C.3   303  LEU303      0.0001
    186  N         28.7200   80.1550  105.8250 N.am  304  HIS304     -0.1976
    187  CA        30.1670   80.0740  105.7730 C.3   304  HIS304      0.1656
    188  C         30.7850   81.1930  104.9410 C.2   304  HIS304      0.2291
    189  O         31.9200   81.6140  105.1900 O.2   304  HIS304     -0.2864
    190  CB        30.5980   78.7040  105.2650 C.3   304  HIS304      0.0771
    191  CG        30.2870   77.6010  106.2260 C.ar  304  HIS304      0.0820
    192  ND1       29.0680   76.9580  106.2520 N.ar  304  HIS304     -0.2267
    193  CD2       31.0000   77.0940  107.2590 C.ar  304  HIS304      0.1154
    194  CE1       29.0420   76.1050  107.2600 C.ar  304  HIS304      0.1986
    195  NE2       30.2030   76.1690  107.8870 N.ar  304  HIS304     -0.2212
    196  N         30.6590   84.0910  107.6230 N.3   307  PHE307     -0.1241
    197  CA        31.6040   83.9050  108.7160 C.3   307  PHE307      0.1605
    198  C         33.0300   83.7490  108.2270 C.2   307  PHE307      0.2264
    199  O         33.9640   84.1020  108.9360 O.2   307  PHE307     -0.2867
    200  CB        31.1810   82.7290  109.6090 C.3   307  PHE307      0.0534
    201  CG        30.0010   83.0470  110.4910 C.ar  307  PHE307     -0.0203
    202  CD1       28.8150   82.3350  110.3860 C.ar  307  PHE307     -0.0042
    203  CD2       30.0590   84.1060  111.3880 C.ar  307  PHE307     -0.0042
    204  CE1       27.7070   82.6770  111.1570 C.ar  307  PHE307     -0.0003
    205  CE2       28.9520   84.4520  112.1630 C.ar  307  PHE307     -0.0003
    206  CZ        27.7760   83.7370  112.0450 C.ar  307  PHE307     -0.0000
@<TRIPOS>BOND
     1   169   168   ar
     2   169   167   ar
     3   168   166   ar
     4   167   165   ar
     5   166   165   ar
     6   165   164    1
     7   164   161    1
     8   161   160    1
     9   161   162    1
    10   157   156    2
    11   160   156   am
    12   154   155    1
    13   156   155    1
    14   162   163    2
    15   155   158    1
    16   170   171    1
    17   158   159    1
    18   171   172    1
    19   171   174    1
    20   143   142    2
    21   172   173    2
    22   174   175    1
    23   142   141    1
    24     1     2    1
    25   175   177   ar
    26   175   176   ar
    27   141   144    1
    28   141   140    1
    29   144   145    1
    30   131   132    1
    31   140   133   am
    32    23    22    2
    33    22    21    1
    34     6     5    1
    35   188   189    2
    36   188   187    1
    37     2     5    1
    38     2     3    1
    39   178   179    1
    40   190   187    1
    41   190   191    1
    42   150   152   ar
    43   150   147   ar
    44     3     4    2
    45   133   132    1
    46   133   134    2
    47   187   186    1
    48   186   180   am
    49    24    21    1
    50    24    25    1
    51   145   147   ar
    52   145   146   ar
    53   132   135    1
    54    21    20    1
    55   152   153   ar
    56   191   192   ar
    57   191   193   ar
    58   192   194   ar
    59   147   149   ar
    60   136   135    1
    61   136   137    1
    62   180   179    1
    63   180   181    2
    64   179   182    1
    65    26    25   ar
    66    26    28   ar
    67   146   148   ar
    68    25    27   ar
    69   137   138    1
    70   193   195   ar
    71   194   195   ar
    72   182   183    1
    73     9    10    2
    74     9     8    1
    75   153   151   ar
    76   196   197    1
    77    16    15    2
    78   149   148   ar
    79   149   151   ar
    80    15    14    1
    81    28    30   ar
    82   198   197    1
    83   198   199    2
    84     7     8    1
    85    27    29   ar
    86    13    14    1
    87   138   139    1
    88     8    11    1
    89   197   200    1
    90   183   185    1
    91   183   184    1
    92    14    17    1
    93    11    12    1
    94    18    17    1
    95    30    29   ar
    96    97    96   ar
    97   200   201    1
    98    99   100    1
    99    93    92    1
   100    93    94    2
   101    17    19    1
   102    92    91    1
   103    92    95    1
   104    96    98   ar
   105    96    95    1
   106   202   201   ar
   107   202   204   ar
   108   201   203   ar
   109   100   103    1
   110   100   101    1
   111   103   104    1
   112   204   206   ar
   113   203   205   ar
   114    52    53    1
   115    52    51    1
   116   101   105   am
   117   101   102    2
   118   206   205   ar
   119   105   106    1
   120    51    50    1
   121    50    47    1
   122    49    48    2
   123   106   107    1
   124   106   109    1
   125   107   108    2
   126    47    48    1
   127    47    46    1
   128   112   114   ar
   129   112   110   ar
   130   125   123   ar
   131   125   126   ar
   132   114   115   ar
   133   109   110    1
   134    44    43    2
   135   128   126   ar
   136   128   130   ar
   137   123   122   ar
   138   110   111   ar
   139   126   124   ar
   140    46    43   am
   141    43    42    1
   142   117   118    1
   143   130   129   ar
   144   115   116    1
   145   115   113   ar
   146   122   124   ar
   147   122   121    1
   148    35    36    1
   149    35    32    1
   150   124   127   ar
   151    45    42    1
   152   111   113   ar
   153    36    38   ar
   154    36    37   ar
   155    38    40   ar
   156    37    39   ar
   157    40    39   ar
   158   129   127   ar
   159    42    41    1
   160   121   118    1
   161   118   119    1
   162    34    33    2
   163    31    32    1
   164    32    33    1
   165   119   120    2
   166    72    71    1
   167    90    89    1
   168    69    70    1
   169    69    68    1
   170    62    60   ar
   171    71    70    2
   172    71    73    1
   173    83    84   ar
   174    83    81   ar
   175    84    82   ar
   176    68    67    1
   177    61    60   ar
   178    60    59    1
   179    89    86    1
   180    67    64    1
   181    81    79   ar
   182    86    85    1
   183    86    87    1
   184    82    80   ar
   185    66    65    2
   186    88    87    2
   187    59    58    1
   188    64    65    1
   189    64    63    1
   190    65    74   am
   191    79    80   ar
   192    79    78    1
   193    74    75    1
   194    58    55    1
   195    54    55    1
   196    75    78    1
   197    75    76    1
   198    57    56    2
   199    55    56    1
   200    76    77    2
