@<TRIPOS>MOLECULE
tmp/1tnyD00.pdb
 221 215 0 0 0
SMALL
GASTEIGER

@<TRIPOS>ATOM
      1  N        -24.8440   16.8210   60.8730 N.3    22  ARG22      -0.1231
      2  CA       -23.8870   17.4570   61.7610 C.3    22  ARG22       0.1694
      3  C        -24.3610   18.8370   62.1950 C.2    22  ARG22       0.2592
      4  O        -23.6550   19.5530   62.8980 O.2    22  ARG22      -0.2718
      5  CB       -22.4970   17.5470   61.1130 C.3    22  ARG22       0.0321
      6  CG       -22.4590   17.5940   59.5880 C.3    22  ARG22       0.0489
      7  CD       -22.3030   16.1920   58.9820 C.3    22  ARG22       0.2205
      8  NE       -23.5390   15.4030   59.0230 N.pl3  22  ARG22      -0.0865
      9  CZ       -23.6220   14.1170   58.6820 C.cat  22  ARG22       0.5346
     10  NH1      -22.5340   13.4680   58.2770 N.pl3  22  ARG22       0.1354
     11  NH2      -24.7930   13.4820   58.7320 N.pl3  22  ARG22       0.1354
     12  N        -25.5660   19.2070   61.7810 N.am   23  TYR23      -0.1976
     13  CA       -26.1390   20.4970   62.1610 C.3    23  TYR23       0.1639
     14  C        -27.2860   20.2660   63.1340 C.2    23  TYR23       0.2290
     15  O        -28.0320   21.1860   63.4590 O.2    23  TYR23      -0.2864
     16  CB       -26.6600   21.2380   60.9260 C.3    23  TYR23       0.0560
     17  CG       -25.5610   21.7510   60.0310 C.ar   23  TYR23      -0.0198
     18  CD1      -24.5420   20.8950   59.5920 C.ar   23  TYR23      -0.0009
     19  CD2      -25.5100   23.1010   59.6550 C.ar   23  TYR23      -0.0009
     20  CE1      -23.4870   21.3660   58.8060 C.ar   23  TYR23       0.0417
     21  CE2      -24.4600   23.5880   58.8640 C.ar   23  TYR23       0.0417
     22  CZ       -23.4450   22.7110   58.4450 C.ar   23  TYR23       0.1957
     23  OH       -22.3750   23.1690   57.6870 O.3    23  TYR23      -0.2866
     24  N        -27.4480   20.1270   66.1090 N.3    25  SER25      -0.1202
     25  CA       -27.4460   21.0300   67.2490 C.3    25  SER25       0.2020
     26  C        -28.1320   22.3500   66.9540 C.2    25  SER25       0.2618
     27  O        -28.2880   23.1770   67.8430 O.2    25  SER25      -0.2717
     28  CB       -26.0190   21.2960   67.7100 C.3    25  SER25       0.2103
     29  OG       -25.2600   21.8500   66.6570 O.3    25  SER25      -0.2182
     30  N        -28.5430   22.5490   65.7090 N.am   26  LEU26      -0.1979
     31  CA       -29.2190   23.7820   65.3220 C.3    26  LEU26       0.1596
     32  C        -30.6980   23.5370   65.0460 C.2    26  LEU26       0.2287
     33  O        -31.3930   24.4160   64.5540 O.2    26  LEU26      -0.2864
     34  CB       -28.5500   24.3860   64.0840 C.3    26  LEU26       0.0297
     35  CG       -27.1050   24.8820   64.2520 C.3    26  LEU26       0.0022
     36  CD1      -26.4520   25.0840   62.8770 C.3    26  LEU26       0.0001
     37  CD2      -27.0960   26.1660   65.0640 C.3    26  LEU26       0.0001
     38  N        -33.1460   25.8370   66.3550 N.3    29  SER29      -0.1217
     39  CA       -32.8090   27.1780   65.8890 C.3    29  SER29       0.1889
     40  C        -32.8580   27.2660   64.3590 C.2    29  SER29       0.2288
     41  O        -32.3950   28.2430   63.7670 O.2    29  SER29      -0.2866
     42  CB       -31.4140   27.5680   66.3950 C.3    29  SER29       0.2089
     43  OG       -31.3670   27.5720   67.8150 O.3    29  SER29      -0.2183
     44  N        -33.5000   30.4730   62.5810 N.3    32  THR32      -0.1218
     45  CA       -32.4390   31.4730   62.4830 C.3    32  THR32       0.1862
     46  C        -31.5080   31.1290   61.3150 C.2    32  THR32       0.2287
     47  O        -30.9230   32.0180   60.7050 O.2    32  THR32      -0.2866
     48  CB       -31.5950   31.5840   63.7770 C.3    32  THR32       0.1770
     49  OG1      -30.6990   30.4730   63.8710 O.3    32  THR32      -0.2211
     50  CG2      -32.4900   31.6140   64.9940 C.3    32  THR32       0.0375
     51  N        -30.5540   33.5210   58.1060 N.3    36  PHE36      -0.1241
     52  CA       -29.2350   33.7920   57.5540 C.3    36  PHE36       0.1605
     53  C        -29.2710   33.5870   56.0400 C.2    36  PHE36       0.2264
     54  O        -28.7270   34.3900   55.2810 O.2    36  PHE36      -0.2867
     55  CB       -28.1890   32.8540   58.1750 C.3    36  PHE36       0.0534
     56  CG       -27.9130   33.1230   59.6280 C.ar   36  PHE36      -0.0203
     57  CD1      -27.4660   32.1040   60.4610 C.ar   36  PHE36      -0.0042
     58  CD2      -28.0860   34.3940   60.1640 C.ar   36  PHE36      -0.0042
     59  CE1      -27.1920   32.3470   61.8030 C.ar   36  PHE36      -0.0003
     60  CE2      -27.8130   34.6420   61.5110 C.ar   36  PHE36      -0.0003
     61  CZ       -27.3670   33.6160   62.3270 C.ar   36  PHE36      -0.0000
     62  N        -39.8590   31.0670   71.1870 N.3   104  HIS104     -0.1241
     63  CA       -38.4960   31.3500   71.6170 C.3   104  HIS104      0.1621
     64  C        -38.2020   32.7380   71.0710 C.2   104  HIS104      0.2264
     65  O        -38.2830   32.9760   69.8640 O.2   104  HIS104     -0.2867
     66  CB       -37.5280   30.3230   71.0360 C.3   104  HIS104      0.0745
     67  CG       -36.1090   30.5080   71.4820 C.ar  104  HIS104      0.0817
     68  ND1      -35.3330   31.5680   71.0720 N.ar  104  HIS104     -0.2268
     69  CD2      -35.3250   29.7600   72.2930 C.ar  104  HIS104      0.1154
     70  CE1      -34.1300   31.4640   71.6080 C.ar  104  HIS104      0.1986
     71  NE2      -34.0990   30.3770   72.3530 N.ar  104  HIS104     -0.2212
     72  N        -35.6950   34.4420   70.1690 N.3   106  ALA106     -0.1231
     73  CA       -34.8290   34.5850   68.9980 C.3   106  ALA106      0.1694
     74  C        -35.5210   34.0720   67.7370 C.2   106  ALA106      0.2591
     75  O        -35.1720   34.4510   66.6190 O.2   106  ALA106     -0.2718
     76  CB       -33.5070   33.8360   69.2160 C.3   106  ALA106      0.0304
     77  N        -36.5110   33.2080   67.9220 N.am  107  MET107     -0.1979
     78  CA       -37.2350   32.6500   66.7920 C.3   107  MET107      0.1605
     79  C        -38.3680   33.5870   66.3920 C.2   107  MET107      0.2287
     80  O        -38.6920   33.7260   65.2090 O.2   107  MET107     -0.2864
     81  CB       -37.7710   31.2700   67.1540 C.3   107  MET107      0.0413
     82  CG       -36.6960   30.3420   67.6940 C.3   107  MET107      0.0598
     83  SD       -35.2400   30.3080   66.6470 S.3   107  MET107     -0.1393
     84  CE       -33.9410   30.1230   67.8870 C.3   107  MET107      0.0692
     85  N        -31.3780   31.2280   80.3700 N.3   152  GLU152     -0.1245
     86  CA       -30.4240   32.2240   80.8300 C.3   152  GLU152      0.1567
     87  C        -30.9620   33.5540   80.3120 C.2   152  GLU152      0.2260
     88  O        -31.8020   33.5790   79.4110 O.2   152  GLU152     -0.2867
     89  CB       -29.0360   31.9500   80.2470 C.3   152  GLU152      0.0388
     90  CG       -28.9190   32.1430   78.7380 C.3   152  GLU152      0.1160
     91  CD       -29.4450   30.9720   77.9170 C.2   152  GLU152      0.3649
     92  OE1      -30.1960   30.1270   78.4550 O.co2 152  GLU152     -0.2457
     93  OE2      -29.1130   30.9090   76.7150 O.co2 152  GLU152     -0.2457
     94  N        -28.3800   39.4850   74.5830 N.3   156  ARG156     -0.1231
     95  CA       -28.8140   38.8740   73.3320 C.3   156  ARG156      0.1694
     96  C        -30.3270   38.9470   73.1910 C.2   156  ARG156      0.2592
     97  O        -30.8550   39.3070   72.1430 O.2   156  ARG156     -0.2718
     98  CB       -28.4070   37.4010   73.2640 C.3   156  ARG156      0.0321
     99  CG       -26.9230   37.1180   73.1420 C.3   156  ARG156      0.0489
    100  CD       -26.6830   35.6220   73.2100 C.3   156  ARG156      0.2205
    101  NE       -27.1610   35.0620   74.4710 N.pl3 156  ARG156     -0.0865
    102  CZ       -27.6740   33.8440   74.6090 C.cat 156  ARG156      0.5346
    103  NH1      -27.7860   33.0420   73.5620 N.pl3 156  ARG156      0.1354
    104  NH2      -28.0810   33.4270   75.7950 N.pl3 156  ARG156      0.1354
    105  N        -31.0270   38.5990   74.2590 N.am  157  PHE157     -0.1976
    106  CA       -32.4770   38.5930   74.2290 C.3   157  PHE157      0.1639
    107  C        -33.0920   39.9820   74.3450 C.2   157  PHE157      0.2290
    108  O        -34.2320   40.2020   73.9080 O.2   157  PHE157     -0.2864
    109  CB       -32.9790   37.6200   75.2960 C.3   157  PHE157      0.0560
    110  CG       -32.4490   36.2210   75.1010 C.ar  157  PHE157     -0.0200
    111  CD1      -32.2160   35.3830   76.1840 C.ar  157  PHE157     -0.0042
    112  CD2      -32.1240   35.7590   73.8160 C.ar  157  PHE157     -0.0042
    113  CE1      -31.6590   34.1090   75.9890 C.ar  157  PHE157     -0.0003
    114  CE2      -31.5710   34.4920   73.6130 C.ar  157  PHE157     -0.0003
    115  CZ       -31.3390   33.6710   74.7000 C.ar  157  PHE157     -0.0000
    116  N        -12.5150   37.5040   64.0850 N.3   252  ASP252     -0.1239
    117  CA       -13.5200   36.5590   63.6360 C.3   252  ASP252      0.1674
    118  C        -14.4220   37.3130   62.6480 C.2   252  ASP252      0.2266
    119  O        -14.9630   38.3800   62.9670 O.2   252  ASP252     -0.2867
    120  CB       -14.3100   36.0860   64.8620 C.3   252  ASP252      0.1410
    121  CG       -15.5250   35.2450   64.5090 C.2   252  ASP252      0.3668
    122  OD1      -16.0110   35.3080   63.3540 O.co2 252  ASP252     -0.2456
    123  OD2      -16.0080   34.5270   65.4120 O.co2 252  ASP252     -0.2456
    124  N        -17.4910   37.2500   61.7170 N.3   254  CYS254     -0.1221
    125  CA       -18.7840   37.7760   62.1440 C.3   254  CYS254      0.1808
    126  C        -18.7070   39.1080   62.8830 C.2   254  CYS254      0.2601
    127  O        -19.6920   39.8550   62.9200 O.2   254  CYS254     -0.2717
    128  CB       -19.5660   36.7350   62.9710 C.3   254  CYS254      0.0970
    129  SG       -18.9110   36.3080   64.6160 S.3   254  CYS254     -0.0800
    130  N        -17.5460   39.4250   63.4490 N.am  255  TYR255     -0.1976
    131  CA       -17.4070   40.6940   64.1610 C.3   255  TYR255      0.1639
    132  C        -17.3070   41.8810   63.2250 C.2   255  TYR255      0.2290
    133  O        -17.4510   43.0350   63.6540 O.2   255  TYR255     -0.2864
    134  CB       -16.2280   40.6460   65.1380 C.3   255  TYR255      0.0560
    135  CG       -16.6090   39.8080   66.3260 C.ar  255  TYR255     -0.0198
    136  CD1      -17.5540   40.2680   67.2370 C.ar  255  TYR255     -0.0009
    137  CD2      -16.1710   38.4940   66.4400 C.ar  255  TYR255     -0.0009
    138  CE1      -18.0630   39.4380   68.2210 C.ar  255  TYR255      0.0417
    139  CE2      -16.6770   37.6520   67.4190 C.ar  255  TYR255      0.0417
    140  CZ       -17.6270   38.1270   68.3030 C.ar  255  TYR255      0.1957
    141  OH       -18.1730   37.2780   69.2370 O.3   255  TYR255     -0.2866
    142  N        -20.9530   42.5600   63.7770 N.3   258  TRP258     -0.1241
    143  CA       -21.2740   42.9150   65.1650 C.3   258  TRP258      0.1605
    144  C        -20.6700   44.2630   65.5570 C.2   258  TRP258      0.2264
    145  O        -21.3790   45.1800   65.9830 O.2   258  TRP258     -0.2867
    146  CB       -20.7610   41.8450   66.1360 C.3   258  TRP258      0.0550
    147  CG       -21.3980   40.4850   66.0060 C.ar  258  TRP258      0.0003
    148  CD1      -20.7490   39.2900   65.8470 C.ar  258  TRP258      0.0946
    149  CD2      -22.7920   40.1750   66.0800 C.ar  258  TRP258      0.0152
    150  NE1      -21.6520   38.2590   65.8200 N.ar  258  TRP258     -0.2442
    151  CE2      -22.9140   38.7700   65.9620 C.ar  258  TRP258      0.0810
    152  CE3      -23.9530   40.9460   66.2390 C.ar  258  TRP258      0.0012
    153  CZ2      -24.1510   38.1180   65.9940 C.ar  258  TRP258      0.0191
    154  CZ3      -25.1890   40.2940   66.2720 C.ar  258  TRP258      0.0001
    155  CH2      -25.2720   38.8910   66.1520 C.ar  258  TRP258      0.0015
    156  N        -15.2530   31.7000   60.1230 N.3   294  LYS294     -0.1231
    157  CA       -14.8370   32.6980   61.0970 C.3   294  LYS294      0.1693
    158  C        -13.3830   33.0500   60.8460 C.2   294  LYS294      0.2592
    159  O        -12.9800   34.2040   60.9900 O.2   294  LYS294     -0.2718
    160  CB       -15.0250   32.1890   62.5310 C.3   294  LYS294      0.0285
    161  CG       -14.0250   31.1550   62.9870 C.3   294  LYS294      0.0035
    162  CD       -14.4110   30.5870   64.3460 C.3   294  LYS294      0.0206
    163  CE       -14.3980   31.6420   65.4360 C.3   294  LYS294      0.1093
    164  NZ       -14.7590   31.0630   66.7590 N.3   294  LYS294     -0.1314
    165  N        -12.6060   32.0450   60.4530 N.am  295  TRP295     -0.1976
    166  CA       -11.1920   32.2360   60.1710 C.3   295  TRP295      0.1640
    167  C        -10.8270   31.7030   58.8030 C.2   295  TRP295      0.2290
    168  O        -11.5530   30.8970   58.2300 O.2   295  TRP295     -0.2864
    169  CB       -10.3390   31.5120   61.1980 C.3   295  TRP295      0.0576
    170  CG       -10.6120   31.9030   62.6020 C.ar  295  TRP295      0.0006
    171  CD1      -10.7820   33.1660   63.0830 C.ar  295  TRP295      0.0946
    172  CD2      -10.6660   31.0300   63.7320 C.ar  295  TRP295      0.0152
    173  NE1      -10.9340   33.1360   64.4460 N.ar  295  TRP295     -0.2442
    174  CE2      -10.8660   31.8360   64.8700 C.ar  295  TRP295      0.0810
    175  CE3      -10.5620   29.6440   63.8920 C.ar  295  TRP295      0.0012
    176  CZ2      -10.9620   31.3010   66.1580 C.ar  295  TRP295      0.0191
    177  CZ3      -10.6560   29.1140   65.1670 C.ar  295  TRP295      0.0001
    178  CH2      -10.8540   29.9440   66.2860 C.ar  295  TRP295      0.0015
    179  N        -10.8520   27.7200   57.0800 N.3   298  SER298     -0.1217
    180  CA       -11.7300   27.1130   58.0690 C.3   298  SER298      0.1889
    181  C        -13.0470   26.8240   57.3400 C.2   298  SER298      0.2288
    182  O        -13.3340   27.4540   56.3250 O.2   298  SER298     -0.2866
    183  CB       -11.9360   28.0960   59.2170 C.3   298  SER298      0.2089
    184  OG       -12.8010   27.5690   60.1940 O.3   298  SER298     -0.2183
    185  N        -20.0590   28.4310   57.2660 N.3   301  ASP301     -0.1239
    186  CA       -21.3620   28.0910   57.8220 C.3   301  ASP301      0.1674
    187  C        -22.3070   29.2390   57.5150 C.2   301  ASP301      0.2266
    188  O        -21.8650   30.3180   57.1250 O.2   301  ASP301     -0.2867
    189  CB       -21.2790   27.8470   59.3350 C.3   301  ASP301      0.1410
    190  CG       -20.7900   29.0560   60.1000 C.2   301  ASP301      0.3668
    191  OD1      -21.5190   30.0680   60.1570 O.co2 301  ASP301     -0.2456
    192  OD2      -19.6680   28.9940   60.6450 O.co2 301  ASP301     -0.2456
    193  N        -24.0940   31.2330   59.4350 N.3   303  LEU303     -0.1231
    194  CA       -23.8850   32.4280   60.2420 C.3   303  LEU303      0.1693
    195  C        -22.7540   33.3160   59.7320 C.2   303  LEU303      0.2592
    196  O        -22.9530   34.5120   59.5120 O.2   303  LEU303     -0.2718
    197  CB       -23.6350   32.0490   61.7080 C.3   303  LEU303      0.0284
    198  CG       -23.4760   33.1790   62.7350 C.3   303  LEU303      0.0019
    199  CD1      -23.9310   32.6870   64.0920 C.3   303  LEU303      0.0001
    200  CD2      -22.0300   33.6730   62.7820 C.3   303  LEU303      0.0001
    201  N        -21.5700   32.7500   59.5380 N.am  304  HIS304     -0.1976
    202  CA       -20.4630   33.5590   59.0540 C.3   304  HIS304      0.1656
    203  C        -20.6240   33.9780   57.5980 C.2   304  HIS304      0.2291
    204  O        -20.1270   35.0290   57.1860 O.2   304  HIS304     -0.2864
    205  CB       -19.1390   32.8370   59.2860 C.3   304  HIS304      0.0771
    206  CG       -18.7900   32.7160   60.7340 C.ar  304  HIS304      0.0820
    207  ND1      -19.2070   31.6590   61.5150 N.ar  304  HIS304     -0.2267
    208  CD2      -18.1480   33.5680   61.5680 C.ar  304  HIS304      0.1154
    209  CE1      -18.8400   31.8670   62.7660 C.ar  304  HIS304      0.1986
    210  NE2      -18.1970   33.0200   62.8250 N.ar  304  HIS304     -0.2212
    211  N        -23.0380   36.9960   58.0780 N.3   307  PHE307     -0.1241
    212  CA       -22.3920   38.1430   58.7000 C.3   307  PHE307      0.1605
    213  C        -21.1830   38.6540   57.9200 C.2   307  PHE307      0.2264
    214  O        -20.8740   39.8460   57.9530 O.2   307  PHE307     -0.2867
    215  CB       -22.0370   37.8260   60.1530 C.3   307  PHE307      0.0534
    216  CG       -23.2270   37.8460   61.0680 C.ar  307  PHE307     -0.0203
    217  CD1      -23.5840   36.7190   61.7980 C.ar  307  PHE307     -0.0042
    218  CD2      -24.0230   38.9870   61.1680 C.ar  307  PHE307     -0.0042
    219  CE1      -24.7160   36.7230   62.6110 C.ar  307  PHE307     -0.0003
    220  CE2      -25.1630   38.9980   61.9830 C.ar  307  PHE307     -0.0003
    221  CZ       -25.5070   37.8650   62.7030 C.ar  307  PHE307     -0.0000
@<TRIPOS>BOND
     1    54    53    2
     2    53    52    1
     3   182   181    2
     4   179   180    1
     5   188   187    2
     6   204   203    2
     7   185   186    1
     8   181   180    1
     9   187   186    1
    10    52    51    1
    11    52    55    1
    12   203   202    1
    13    23    22    1
    14   186   189    1
    15   213   214    2
    16   213   212    1
    17   180   183    1
    18   211   212    1
    19    55    56    1
    20   168   167    2
    21    10     9    1
    22    22    20   ar
    23    22    21   ar
    24     9    11    1
    25     9     8    2
    26   212   215    1
    27   167   166    1
    28    20    18   ar
    29    21    19   ar
    30     7     8    1
    31     7     6    1
    32   202   205    1
    33   202   201    1
    34   183   184    1
    35   205   206    1
    36   189   190    1
    37   193   194    1
    38   196   195    2
    39   201   195   am
    40     6     5    1
    41    18    17   ar
    42    56    58   ar
    43    56    57   ar
    44    19    17   ar
    45   195   194    1
    46    17    16    1
    47   190   191   ar
    48   190   192   ar
    49   156   157    1
    50   215   216    1
    51    58    60   ar
    52   166   165    1
    53   166   169    1
    54   194   197    1
    55   165   158   am
    56    57    59   ar
    57    47    46    2
    58   206   207   ar
    59   206   208   ar
    60   158   159    2
    61   158   157    1
    62     1     2    1
    63    16    13    1
    64   216   218   ar
    65   216   217   ar
    66   157   160    1
    67     5     2    1
    68   218   220   ar
    69   169   170    1
    70    46    45    1
    71    60    61   ar
    72   207   209   ar
    73   208   210   ar
    74   197   198    1
    75   124   125    1
    76     2     3    1
    77    12    13    1
    78    12     3   am
    79   217   219   ar
    80    59    61   ar
    81   220   221   ar
    82   125   126    1
    83   125   128    1
    84    13    14    1
    85     3     4    2
    86    45    44    1
    87    45    48    1
    88   160   161    1
    89   170   171   ar
    90   170   172   ar
    91   219   221   ar
    92   118   119    2
    93   118   117    1
    94   198   200    1
    95   198   199    1
    96   209   210   ar
    97    36    35    1
    98   126   127    2
    99   126   130   am
   100   128   129    1
   101   161   162    1
   102   171   173   ar
   103    14    15    2
   104   132   133    2
   105   132   131    1
   106   122   121   ar
   107   130   131    1
   108   117   116    1
   109   117   120    1
   110   172   175   ar
   111   172   174   ar
   112    41    40    2
   113   142   143    1
   114    48    49    1
   115    48    50    1
   116   175   177   ar
   117    34    35    1
   118    34    31    1
   119   131   134    1
   120    35    37    1
   121   162   163    1
   122    40    39    1
   123   173   174   ar
   124   121   120    1
   125   121   123   ar
   126    33    32    2
   127   174   176   ar
   128    32    31    1
   129   134   135    1
   130   143   144    1
   131   143   146    1
   132   177   178   ar
   133    80    79    2
   134    31    30    1
   135   163   164    1
   136   144   145    2
   137    30    26   am
   138   150   148   ar
   139   150   151   ar
   140   148   147   ar
   141    39    38    1
   142    39    42    1
   143   151   153   ar
   144   151   149   ar
   145   153   155   ar
   146   147   149   ar
   147   147   146    1
   148   149   152   ar
   149    24    25    1
   150   155   154   ar
   151   176   178   ar
   152   152   154   ar
   153   135   137   ar
   154   135   136   ar
   155    79    78    1
   156    42    43    1
   157   137   139   ar
   158    75    74    2
   159    83    82    1
   160    83    84    1
   161    29    28    1
   162    78    81    1
   163    78    77    1
   164    26    25    1
   165    26    27    2
   166    81    82    1
   167   136   138   ar
   168    25    28    1
   169   139   140   ar
   170    74    77   am
   171    74    73    1
   172   138   140   ar
   173   140   141    1
   174    73    76    1
   175    73    72    1
   176    65    64    2
   177    66    67    1
   178    66    63    1
   179    64    63    1
   180    68    67   ar
   181    68    70   ar
   182    62    63    1
   183    67    69   ar
   184    70    71   ar
   185    97    96    2
   186    69    71   ar
   187    99   100    1
   188    99    98    1
   189    96    95    1
   190    96   105   am
   191   100   101    1
   192    98    95    1
   193    95    94    1
   194   103   102    1
   195   114   112   ar
   196   114   115   ar
   197   112   110   ar
   198   108   107    2
   199   106   105    1
   200   106   107    1
   201   106   109    1
   202   101   102    2
   203   102   104    1
   204   115   113   ar
   205   110   109    1
   206   110   111   ar
   207   113   111   ar
   208    93    91   ar
   209    91    92   ar
   210    91    90    1
   211    90    89    1
   212    88    87    2
   213    89    86    1
   214    87    86    1
   215    85    86    1
