@<TRIPOS>MOLECULE
tmp/1tnzL00.pdb
 207 199 0 0 0
SMALL
GASTEIGER

@<TRIPOS>ATOM
      1  N        -39.4440   61.7740    6.9780 N.3    22  ARG22      -0.1231
      2  CA       -38.4990   62.5730    7.7350 C.3    22  ARG22       0.1694
      3  C        -37.2160   61.8150    8.0570 C.2    22  ARG22       0.2592
      4  O        -36.2940   62.3750    8.6370 O.2    22  ARG22      -0.2718
      5  CB       -39.1420   63.1370    9.0120 C.3    22  ARG22       0.0321
      6  CG       -39.6080   62.1450   10.0510 C.3    22  ARG22       0.0489
      7  CD       -39.7830   62.8670   11.3920 C.3    22  ARG22       0.2205
      8  NE       -40.1770   61.9770   12.4840 N.pl3  22  ARG22      -0.0865
      9  CZ       -41.3710   61.3910   12.5960 C.cat  22  ARG22       0.5346
     10  NH1      -42.3130   61.5970   11.6750 N.pl3  22  ARG22       0.1354
     11  NH2      -41.6240   60.5960   13.6350 N.pl3  22  ARG22       0.1354
     12  N        -37.1410   60.5480    7.6670 N.am   23  TYR23      -0.1976
     13  CA       -35.9330   59.7710    7.9170 C.3    23  TYR23       0.1639
     14  C        -35.1870   59.5270    6.6130 C.2    23  TYR23       0.2290
     15  O        -34.2850   58.6910    6.5390 O.2    23  TYR23      -0.2864
     16  CB       -36.2770   58.4420    8.6100 C.3    23  TYR23       0.0560
     17  CG       -36.9150   58.6580    9.9640 C.ar   23  TYR23      -0.0198
     18  CD1      -38.2990   58.7740   10.0930 C.ar   23  TYR23      -0.0009
     19  CD2      -36.1290   58.8650   11.1000 C.ar   23  TYR23      -0.0009
     20  CE1      -38.8850   59.1050   11.3160 C.ar   23  TYR23       0.0417
     21  CE2      -36.7030   59.2000   12.3300 C.ar   23  TYR23       0.0417
     22  CZ       -38.0810   59.3250   12.4300 C.ar   23  TYR23       0.1957
     23  OH       -38.6510   59.7160   13.6230 O.3    23  TYR23      -0.2866
     24  N        -32.8560   60.8780    5.2680 N.3    25  SER25      -0.1202
     25  CA       -31.4070   61.0080    5.3340 C.3    25  SER25       0.2020
     26  C        -30.7640   59.6810    5.6720 C.2    25  SER25       0.2618
     27  O        -29.5490   59.5510    5.6440 O.2    25  SER25      -0.2717
     28  CB       -31.0250   62.0330    6.3870 C.3    25  SER25       0.2103
     29  OG       -31.5610   61.6460    7.6320 O.3    25  SER25      -0.2182
     30  N        -31.5900   58.6930    5.9870 N.am   26  LEU26      -0.1979
     31  CA       -31.1020   57.3700    6.3460 C.3    26  LEU26       0.1596
     32  C        -31.1150   56.4070    5.1770 C.2    26  LEU26       0.2287
     33  O        -30.6100   55.2910    5.2940 O.2    26  LEU26      -0.2864
     34  CB       -31.9620   56.7850    7.4510 C.3    26  LEU26       0.0297
     35  CG       -31.9110   57.5020    8.7880 C.3    26  LEU26       0.0022
     36  CD1      -32.9900   56.9440    9.7010 C.3    26  LEU26       0.0001
     37  CD2      -30.5300   57.3250    9.3810 C.3    26  LEU26       0.0001
     38  N        -28.3250   54.2080    4.3530 N.3    29  SER29      -0.1217
     39  CA       -27.8090   53.5160    5.5270 C.3    29  SER29       0.1889
     40  C        -28.9010   52.6730    6.1340 C.2    29  SER29       0.2288
     41  O        -28.8700   52.3470    7.3270 O.2    29  SER29      -0.2866
     42  CB       -27.3170   54.5320    6.5590 C.3    29  SER29       0.2089
     43  OG       -26.2880   55.3450    6.0030 O.3    29  SER29      -0.2183
     44  N        -28.0180   49.3560    8.0450 N.3    32  THR32      -0.1218
     45  CA       -27.5820   49.4290    9.4320 C.3    32  THR32       0.1862
     46  C        -28.7920   49.6860   10.3430 C.2    32  THR32       0.2287
     47  O        -28.7720   49.3270   11.5290 O.2    32  THR32      -0.2866
     48  CB       -26.5000   50.5230    9.6760 C.3    32  THR32       0.1770
     49  OG1      -27.1270   51.7980    9.8050 O.3    32  THR32      -0.2211
     50  CG2      -25.4960   50.5660    8.5300 C.3    32  THR32       0.0375
     51  N        -29.7780   47.4310   13.5870 N.3    36  PHE36      -0.1241
     52  CA       -30.1490   47.8510   14.9270 C.3    36  PHE36       0.1605
     53  C        -31.4280   47.1350   15.3400 C.2    36  PHE36       0.2264
     54  O        -31.5610   46.6670   16.4660 O.2    36  PHE36      -0.2867
     55  CB       -30.3690   49.3710   14.9770 C.3    36  PHE36       0.0534
     56  CG       -29.1040   50.1830   14.8140 C.ar   36  PHE36      -0.0203
     57  CD1      -29.1540   51.4760   14.2930 C.ar   36  PHE36      -0.0042
     58  CD2      -27.8660   49.6630   15.1750 C.ar   36  PHE36      -0.0042
     59  CE1      -27.9900   52.2380   14.1300 C.ar   36  PHE36      -0.0003
     60  CE2      -26.6910   50.4220   15.0150 C.ar   36  PHE36      -0.0003
     61  CZ       -26.7610   51.7090   14.4910 C.ar   36  PHE36      -0.0000
     62  N        -20.1900   49.6760    0.5720 N.3   104  HIS104     -0.1241
     63  CA       -19.8510   50.6340    1.6210 C.3   104  HIS104      0.1621
     64  C        -19.4120   49.7710    2.7960 C.2   104  HIS104      0.2264
     65  O        -20.1620   48.9180    3.2590 O.2   104  HIS104     -0.2867
     66  CB       -21.0770   51.4720    1.9760 C.3   104  HIS104      0.0745
     67  CG       -20.8030   52.5620    2.9570 C.ar  104  HIS104      0.0817
     68  ND1      -20.6510   52.3290    4.3050 N.ar  104  HIS104     -0.2268
     69  CD2      -20.6510   53.8950    2.7850 C.ar  104  HIS104      0.1154
     70  CE1      -20.4190   53.4720    4.9230 C.ar  104  HIS104      0.1986
     71  NE2      -20.4150   54.4390    4.0230 N.ar  104  HIS104     -0.2212
     72  N        -19.2800   50.0010    5.9320 N.3   106  ALA106     -0.1231
     73  CA       -20.1510   49.8850    7.0940 C.3   106  ALA106      0.1694
     74  C        -21.3310   48.9850    6.7660 C.2   106  ALA106      0.2591
     75  O        -21.8870   48.3360    7.6520 O.2   106  ALA106     -0.2718
     76  CB       -20.6450   51.2630    7.5240 C.3   106  ALA106      0.0304
     77  N        -21.7070   48.9530    5.4880 N.am  107  MET107     -0.1979
     78  CA       -22.8220   48.1350    5.0180 C.3   107  MET107      0.1605
     79  C        -22.4100   46.6730    4.8540 C.2   107  MET107      0.2287
     80  O        -23.1880   45.7660    5.1520 O.2   107  MET107     -0.2864
     81  CB       -23.3420   48.7010    3.7040 C.3   107  MET107      0.0413
     82  CG       -23.7120   50.1720    3.8160 C.3   107  MET107      0.0598
     83  SD       -24.7930   50.5220    5.2270 S.3   107  MET107     -0.1393
     84  CE       -24.2140   52.1780    5.6720 C.3   107  MET107      0.0692
     85  N        -14.0800   60.1190    3.7750 N.3   152  GLU152     -0.1245
     86  CA       -13.2260   60.4470    4.8980 C.3   152  GLU152      0.1567
     87  C        -12.6920   59.0960    5.4030 C.2   152  GLU152      0.2260
     88  O        -13.2630   58.0420    5.0990 O.2   152  GLU152     -0.2867
     89  CB       -14.0520   61.1260    5.9870 C.3   152  GLU152      0.0388
     90  CG       -15.1120   60.2090    6.6170 C.3   152  GLU152      0.1160
     91  CD       -16.4250   60.1600    5.8480 C.2   152  GLU152      0.3649
     92  OE1      -16.4290   60.3980    4.6230 O.co2 152  GLU152     -0.2457
     93  OE2      -17.4680   59.8630    6.4680 O.co2 152  GLU152     -0.2457
     94  N        -13.4980   54.5680   12.6950 N.3   156  ARG156     -0.1231
     95  CA       -14.8000   53.9440   12.4820 C.3   156  ARG156      0.1694
     96  C        -14.6850   52.8030   11.4810 C.2   156  ARG156      0.2592
     97  O        -15.1560   51.6950   11.7260 O.2   156  ARG156     -0.2718
     98  CB       -15.8160   54.9440   11.9260 C.3   156  ARG156      0.0321
     99  CG       -16.3320   55.9990   12.8630 C.3   156  ARG156      0.0489
    100  CD       -17.3030   56.9040   12.0960 C.3   156  ARG156      0.2205
    101  NE       -16.6250   57.6410   11.0260 N.pl3 156  ARG156     -0.0865
    102  CZ       -17.2300   58.1270    9.9500 C.cat 156  ARG156      0.5346
    103  NH1      -18.5280   57.9570    9.7890 N.pl3 156  ARG156      0.1354
    104  NH2      -16.5350   58.7700    9.0280 N.pl3 156  ARG156      0.1354
    105  N        -14.0430   53.0890   10.3540 N.am  157  PHE157     -0.1976
    106  CA       -13.9080   52.1200    9.2830 C.3   157  PHE157      0.1639
    107  C        -12.8550   51.0650    9.5260 C.2   157  PHE157      0.2290
    108  O        -12.8770   50.0180    8.8870 O.2   157  PHE157     -0.2864
    109  CB       -13.6830   52.8760    7.9760 C.3   157  PHE157      0.0560
    110  CG       -14.7780   53.8760    7.6810 C.ar  157  PHE157     -0.0200
    111  CD1      -14.5080   55.0590    7.0040 C.ar  157  PHE157     -0.0042
    112  CD2      -16.0830   53.6470    8.1200 C.ar  157  PHE157     -0.0042
    113  CE1      -15.5250   56.0000    6.7750 C.ar  157  PHE157     -0.0003
    114  CE2      -17.0940   54.5760    7.8950 C.ar  157  PHE157     -0.0003
    115  CZ       -16.8150   55.7530    7.2240 C.ar  157  PHE157     -0.0000
    116  N        -14.7720   48.4790   11.1230 N.3   160  CYS160     -0.1235
    117  CA       -15.6090   47.8050   10.1380 C.3   160  CYS160      0.1677
    118  C        -14.7930   46.7440    9.4060 C.2   160  CYS160      0.2270
    119  O        -15.2550   45.6170    9.2200 O.2   160  CYS160     -0.2867
    120  CB       -16.1710   48.8220    9.1350 C.3   160  CYS160      0.0956
    121  SG       -17.5230   49.8350    9.7710 S.3   160  CYS160     -0.0801
    122  N        -24.6370   60.1990   27.2970 N.3   252  ASP252     -0.1239
    123  CA       -25.4670   59.8000   26.1750 C.3   252  ASP252      0.1674
    124  C        -25.6340   58.2770   26.2840 C.2   252  ASP252      0.2266
    125  O        -24.6500   57.5390   26.3670 O.2   252  ASP252     -0.2867
    126  CB       -24.7380   60.1930   24.8730 C.3   252  ASP252      0.1410
    127  CG       -25.4120   59.6610   23.6050 C.2   252  ASP252      0.3668
    128  OD1      -26.2580   58.7350   23.6790 O.co2 252  ASP252     -0.2456
    129  OD2      -25.0590   60.1730   22.5170 O.co2 252  ASP252     -0.2456
    130  N        -26.0280   55.7670   24.3000 N.3   254  CYS254     -0.1221
    131  CA       -25.2250   54.8570   23.5030 C.3   254  CYS254      0.1808
    132  C        -23.8130   54.6000   24.0370 C.2   254  CYS254      0.2601
    133  O        -23.2100   53.5660   23.7400 O.2   254  CYS254     -0.2717
    134  CB       -25.1890   55.3060   22.0310 C.3   254  CYS254      0.0970
    135  SG       -24.2430   56.7970   21.5980 S.3   254  CYS254     -0.0800
    136  N        -23.2860   55.5170   24.8400 N.am  255  TYR255     -0.1976
    137  CA       -21.9450   55.3220   25.3830 C.3   255  TYR255      0.1639
    138  C        -21.8860   54.2580   26.4650 C.2   255  TYR255      0.2290
    139  O        -20.7970   53.8280   26.8570 O.2   255  TYR255     -0.2864
    140  CB       -21.3700   56.6510   25.8740 C.3   255  TYR255      0.0560
    141  CG       -20.9640   57.4910   24.6990 C.ar  255  TYR255     -0.0198
    142  CD1      -19.8630   57.1340   23.9240 C.ar  255  TYR255     -0.0009
    143  CD2      -21.7710   58.5310   24.2530 C.ar  255  TYR255     -0.0009
    144  CE1      -19.5840   57.7740   22.7330 C.ar  255  TYR255      0.0417
    145  CE2      -21.5000   59.1810   23.0500 C.ar  255  TYR255      0.0417
    146  CZ       -20.4040   58.7840   22.2960 C.ar  255  TYR255      0.1957
    147  OH       -20.1600   59.3450   21.0730 O.3   255  TYR255     -0.2866
    148  N        -20.6270   51.8200   23.9380 N.3   258  TRP258     -0.1241
    149  CA       -19.3210   52.1990   23.4020 C.3   258  TRP258      0.1605
    150  C        -18.2230   52.0940   24.4650 C.2   258  TRP258      0.2264
    151  O        -17.2260   51.3910   24.2640 O.2   258  TRP258     -0.2867
    152  CB       -19.3470   53.6310   22.8500 C.3   258  TRP258      0.0550
    153  CG       -20.2400   53.8590   21.6540 C.ar  258  TRP258      0.0003
    154  CD1      -21.2080   54.8150   21.5270 C.ar  258  TRP258      0.0946
    155  CD2      -20.2070   53.1600   20.4100 C.ar  258  TRP258      0.0152
    156  NE1      -21.7780   54.7570   20.2810 N.ar  258  TRP258     -0.2442
    157  CE2      -21.1820   53.7500   19.5710 C.ar  258  TRP258      0.0810
    158  CE3      -19.4490   52.0950   19.9170 C.ar  258  TRP258      0.0012
    159  CZ2      -21.4150   53.3090   18.2600 C.ar  258  TRP258      0.0191
    160  CZ3      -19.6820   51.6590   18.6150 C.ar  258  TRP258      0.0001
    161  CH2      -20.6590   52.2690   17.8020 C.ar  258  TRP258      0.0015
    162  N        -31.0330   59.3330   23.4250 N.3   294  LYS294     -0.1245
    163  CA       -29.7130   59.5980   23.9740 C.3   294  LYS294      0.1561
    164  C        -29.8550   60.2240   25.3580 C.2   294  LYS294      0.2260
    165  O        -29.1000   59.8970   26.2660 O.2   294  LYS294     -0.2867
    166  CB       -28.8940   60.5040   23.0450 C.3   294  LYS294      0.0271
    167  CG       -29.3830   61.9270   22.9190 C.3   294  LYS294      0.0035
    168  CD       -28.5360   62.7390   21.9260 C.3   294  LYS294      0.0206
    169  CE       -27.0940   62.9110   22.4100 C.3   294  LYS294      0.1093
    170  NZ       -26.2630   63.7720   21.4960 N.3   294  LYS294     -0.1314
    171  N        -34.9030   56.2910   19.1490 N.3   301  ASP301     -0.1239
    172  CA       -34.4970   55.9400   17.7960 C.3   301  ASP301      0.1674
    173  C        -33.8430   54.5560   17.7910 C.2   301  ASP301      0.2266
    174  O        -33.4640   54.0360   18.8310 O.2   301  ASP301     -0.2867
    175  CB       -33.5550   57.0040   17.2080 C.3   301  ASP301      0.1410
    176  CG       -32.1980   57.0520   17.8930 C.2   301  ASP301      0.3668
    177  OD1      -31.5160   56.0090   17.9300 O.co2 301  ASP301     -0.2456
    178  OD2      -31.7960   58.1350   18.3800 O.co2 301  ASP301     -0.2456
    179  N        -30.9020   53.4760   16.8690 N.3   303  LEU303     -0.1231
    180  CA       -29.5450   53.4100   17.3930 C.3   303  LEU303      0.1693
    181  C        -29.4990   53.3820   18.9160 C.2   303  LEU303      0.2592
    182  O        -28.9060   52.4840   19.5120 O.2   303  LEU303     -0.2718
    183  CB       -28.7180   54.5820   16.8650 C.3   303  LEU303      0.0284
    184  CG       -27.2400   54.6420   17.2590 C.3   303  LEU303      0.0019
    185  CD1      -26.4880   55.3280   16.1470 C.3   303  LEU303      0.0001
    186  CD2      -27.0500   55.3850   18.5850 C.3   303  LEU303      0.0001
    187  N        -30.1250   54.3570   19.5580 N.am  304  HIS304     -0.1976
    188  CA       -30.1020   54.3790   21.0080 C.3   304  HIS304      0.1656
    189  C        -30.9120   53.2530   21.6260 C.2   304  HIS304      0.2291
    190  O        -30.6120   52.8080   22.7380 O.2   304  HIS304     -0.2864
    191  CB       -30.5480   55.7490   21.5220 C.3   304  HIS304      0.0771
    192  CG       -29.5480   56.8190   21.2370 C.ar  304  HIS304      0.0820
    193  ND1      -29.4940   57.4770   20.0290 N.ar  304  HIS304     -0.2267
    194  CD2      -28.4660   57.2360   21.9390 C.ar  304  HIS304      0.1154
    195  CE1      -28.4190   58.2460   19.9950 C.ar  304  HIS304      0.1986
    196  NE2      -27.7760   58.1160   21.1410 N.ar  304  HIS304     -0.2212
    197  N        -28.2960   50.2410   21.2270 N.3   307  PHE307     -0.1241
    198  CA       -27.1590   50.4060   22.1220 C.3   307  PHE307      0.1605
    199  C        -27.5910   50.5190   23.5710 C.2   307  PHE307      0.2264
    200  O        -26.8660   50.0970   24.4670 O.2   307  PHE307     -0.2867
    201  CB       -26.3150   51.6060   21.7070 C.3   307  PHE307      0.0534
    202  CG       -25.4920   51.3520   20.4860 C.ar  307  PHE307     -0.0203
    203  CD1      -25.7000   52.0730   19.3170 C.ar  307  PHE307     -0.0042
    204  CD2      -24.5330   50.3540   20.4870 C.ar  307  PHE307     -0.0042
    205  CE1      -24.9620   51.7940   18.1700 C.ar  307  PHE307     -0.0003
    206  CE2      -23.7870   50.0680   19.3380 C.ar  307  PHE307     -0.0003
    207  CZ       -24.0020   50.7880   18.1840 C.ar  307  PHE307     -0.0000
@<TRIPOS>BOND
     1    62    63    1
     2    63    66    1
     3    63    64    1
     4    66    67    1
     5    69    67   ar
     6    69    71   ar
     7    64    65    2
     8    67    68   ar
     9    81    82    1
    10    81    78    1
    11    85    86    1
    12    82    83    1
    13    71    70   ar
    14    68    70   ar
    15    38    39    1
    16    92    91   ar
    17    79    78    1
    18    79    80    2
    19    86    87    1
    20    86    89    1
    21    78    77    1
    22    88    87    2
    23    32    33    2
    24    32    31    1
    25    83    84    1
    26    24    25    1
    27    25    26    1
    28    25    28    1
    29    77    74   am
    30    39    40    1
    31    39    42    1
    32    27    26    2
    33    26    30   am
    34    91    93   ar
    35    91    90    1
    36    72    73    1
    37    89    90    1
    38    30    31    1
    39    43    42    1
    40    40    41    2
    41    31    34    1
    42    28    29    1
    43    15    14    2
    44    14    13    1
    45    74    73    1
    46    74    75    2
    47   113   111   ar
    48   113   115   ar
    49     1     2    1
    50   111   110   ar
    51    73    76    1
    52   115   114   ar
    53    34    35    1
    54    12    13    1
    55    12     3   am
    56   110   109    1
    57   110   112   ar
    58     2     3    1
    59     2     5    1
    60   114   112   ar
    61    13    16    1
    62   109   106    1
    63    44    45    1
    64     3     4    2
    65    50    48    1
    66    16    17    1
    67    35    37    1
    68    35    36    1
    69   108   107    2
    70     5     6    1
    71   104   102    1
    72   120   121    1
    73   120   117    1
    74   119   118    2
    75   106   107    1
    76   106   105    1
    77   118   117    1
    78    45    48    1
    79    45    46    1
    80    48    49    1
    81   103   102    1
    82   102   101    2
    83    17    18   ar
    84    17    19   ar
    85     6     7    1
    86    18    20   ar
    87   117   116    1
    88    46    47    2
    89   105    96   am
    90   101   100    1
    91    19    21   ar
    92    20    22   ar
    93     7     8    1
    94    96    97    2
    95    96    95    1
    96    10     9    1
    97    98    95    1
    98    98    99    1
    99   100    99    1
   100    21    22   ar
   101    22    23    1
   102    95    94    1
   103     8     9    2
   104     9    11    1
   105    51    52    1
   106    59    57   ar
   107    59    61   ar
   108    57    56   ar
   109    61    60   ar
   110    56    55    1
   111    56    58   ar
   112    52    55    1
   113    52    53    1
   114    60    58   ar
   115    53    54    2
   116   185   184    1
   117   183   184    1
   118   183   180    1
   119   179   180    1
   120   175   172    1
   121   175   176    1
   122   184   186    1
   123   180   181    1
   124   173   172    1
   125   173   174    2
   126   172   171    1
   127   161   159   ar
   128   161   160   ar
   129   176   177   ar
   130   176   178   ar
   131   205   207   ar
   132   205   203   ar
   133   207   206   ar
   134   159   157   ar
   135   160   158   ar
   136   181   182    2
   137   181   187   am
   138   203   202   ar
   139   206   204   ar
   140   187   188    1
   141   157   156   ar
   142   157   155   ar
   143   158   155   ar
   144   195   193   ar
   145   195   196   ar
   146   193   192   ar
   147   156   154   ar
   148   155   153   ar
   149   202   204   ar
   150   202   201    1
   151   188   191    1
   152   188   189    1
   153   147   146    1
   154   196   194   ar
   155   197   198    1
   156   192   191    1
   157   192   194   ar
   158   170   169    1
   159   154   153   ar
   160   135   134    1
   161   189   190    2
   162   153   152    1
   163   201   198    1
   164   168   169    1
   165   168   167    1
   166   134   131    1
   167   198   199    1
   168   146   144   ar
   169   146   145   ar
   170   129   127   ar
   171   144   142   ar
   172   152   149    1
   173   167   166    1
   174   166   163    1
   175   145   143   ar
   176   149   148    1
   177   149   150    1
   178   162   163    1
   179   131   132    1
   180   131   130    1
   181   199   200    2
   182   127   128   ar
   183   127   126    1
   184   133   132    2
   185   142   141   ar
   186   163   164    1
   187   132   136   am
   188   143   141   ar
   189   151   150    2
   190   141   140    1
   191   136   137    1
   192   126   123    1
   193   164   165    2
   194   137   140    1
   195   137   138    1
   196   123   124    1
   197   123   122    1
   198   124   125    2
   199   138   139    2
