@<TRIPOS>MOLECULE
tmp/1tnzL01.pdb
 214 206 0 0 0
SMALL
GASTEIGER

@<TRIPOS>ATOM
      1  N        -28.0180   49.3560    8.0450 N.3    32  THR32      -0.1218
      2  CA       -27.5820   49.4290    9.4320 C.3    32  THR32       0.1862
      3  C        -28.7920   49.6860   10.3430 C.2    32  THR32       0.2287
      4  O        -28.7720   49.3270   11.5290 O.2    32  THR32      -0.2866
      5  CB       -26.5000   50.5230    9.6760 C.3    32  THR32       0.1770
      6  OG1      -27.1270   51.7980    9.8050 O.3    32  THR32      -0.2211
      7  CG2      -25.4960   50.5660    8.5300 C.3    32  THR32       0.0375
      8  N        -30.0710   46.4180   10.9080 N.3    35  PHE35      -0.1227
      9  CA       -29.1900   45.7830   11.8870 C.3    35  PHE35       0.1736
     10  C        -29.5680   46.1490   13.3250 C.2    35  PHE35       0.2595
     11  O        -29.6510   45.2890   14.1890 O.2    35  PHE35      -0.2718
     12  CB       -27.7420   46.1970   11.6320 C.3    35  PHE35       0.0547
     13  CG       -26.7970   45.7920   12.7280 C.ar   35  PHE35      -0.0202
     14  CD1      -26.4040   44.4660   12.8770 C.ar   35  PHE35      -0.0042
     15  CD2      -26.3380   46.7330   13.6460 C.ar   35  PHE35      -0.0042
     16  CE1      -25.5660   44.0790   13.9300 C.ar   35  PHE35      -0.0003
     17  CE2      -25.4980   46.3540   14.7050 C.ar   35  PHE35      -0.0003
     18  CZ       -25.1130   45.0230   14.8460 C.ar   35  PHE35      -0.0000
     19  N        -29.7780   47.4310   13.5870 N.am   36  PHE36      -0.1976
     20  CA       -30.1490   47.8510   14.9270 C.3    36  PHE36       0.1639
     21  C        -31.4280   47.1350   15.3400 C.2    36  PHE36       0.2290
     22  O        -31.5610   46.6670   16.4660 O.2    36  PHE36      -0.2864
     23  CB       -30.3690   49.3710   14.9770 C.3    36  PHE36       0.0560
     24  CG       -29.1040   50.1830   14.8140 C.ar   36  PHE36      -0.0200
     25  CD1      -29.1540   51.4760   14.2930 C.ar   36  PHE36      -0.0042
     26  CD2      -27.8660   49.6630   15.1750 C.ar   36  PHE36      -0.0042
     27  CE1      -27.9900   52.2380   14.1300 C.ar   36  PHE36      -0.0003
     28  CE2      -26.6910   50.4220   15.0150 C.ar   36  PHE36      -0.0003
     29  CZ       -26.7610   51.7090   14.4910 C.ar   36  PHE36      -0.0000
     30  N        -19.2800   50.0010    5.9320 N.3   106  ALA106     -0.1245
     31  CA       -20.1510   49.8850    7.0940 C.3   106  ALA106      0.1562
     32  C        -21.3310   48.9850    6.7660 C.2   106  ALA106      0.2260
     33  O        -21.8870   48.3360    7.6520 O.2   106  ALA106     -0.2867
     34  CB       -20.6450   51.2630    7.5240 C.3   106  ALA106      0.0290
     35  N        -20.1540   45.3110    6.5810 N.3   109  TYR109     -0.1227
     36  CA       -20.1040   44.9020    7.9690 C.3   109  TYR109      0.1736
     37  C        -21.4980   44.5630    8.4950 C.2   109  TYR109      0.2596
     38  O        -21.7630   43.4180    8.8340 O.2   109  TYR109     -0.2718
     39  CB       -19.4550   46.0080    8.8230 C.3   109  TYR109      0.0548
     40  CG       -19.8110   45.9640   10.3040 C.ar  109  TYR109     -0.0200
     41  CD1      -19.7350   44.7710   11.0330 C.ar  109  TYR109     -0.0009
     42  CD2      -20.2920   47.1010   10.9560 C.ar  109  TYR109     -0.0009
     43  CE1      -20.1420   44.7100   12.3660 C.ar  109  TYR109      0.0417
     44  CE2      -20.7020   47.0520   12.2860 C.ar  109  TYR109      0.0417
     45  CZ       -20.6300   45.8500   12.9870 C.ar  109  TYR109      0.1957
     46  OH       -21.0770   45.7710   14.2960 O.3   109  TYR109     -0.2866
     47  N        -22.3930   45.5440    8.5600 N.am  110  THR110     -0.1953
     48  CA       -23.7360   45.2850    9.0790 C.3   110  THR110      0.1897
     49  C        -24.4990   44.2780    8.2400 C.2   110  THR110      0.2313
     50  O        -25.4040   43.6090    8.7340 O.2   110  THR110     -0.2863
     51  CB       -24.5790   46.5810    9.1920 C.3   110  THR110      0.1794
     52  OG1      -24.4890   47.3330    7.9760 O.3   110  THR110     -0.2208
     53  CG2      -24.1040   47.4190   10.3730 C.3   110  THR110      0.0378
     54  N        -13.4980   54.5680   12.6950 N.3   156  ARG156     -0.1231
     55  CA       -14.8000   53.9440   12.4820 C.3   156  ARG156      0.1694
     56  C        -14.6850   52.8030   11.4810 C.2   156  ARG156      0.2592
     57  O        -15.1560   51.6950   11.7260 O.2   156  ARG156     -0.2718
     58  CB       -15.8160   54.9440   11.9260 C.3   156  ARG156      0.0321
     59  CG       -16.3320   55.9990   12.8630 C.3   156  ARG156      0.0489
     60  CD       -17.3030   56.9040   12.0960 C.3   156  ARG156      0.2205
     61  NE       -16.6250   57.6410   11.0260 N.pl3 156  ARG156     -0.0865
     62  CZ       -17.2300   58.1270    9.9500 C.cat 156  ARG156      0.5346
     63  NH1      -18.5280   57.9570    9.7890 N.pl3 156  ARG156      0.1354
     64  NH2      -16.5350   58.7700    9.0280 N.pl3 156  ARG156      0.1354
     65  N        -14.0430   53.0890   10.3540 N.am  157  PHE157     -0.1976
     66  CA       -13.9080   52.1200    9.2830 C.3   157  PHE157      0.1639
     67  C        -12.8550   51.0650    9.5260 C.2   157  PHE157      0.2290
     68  O        -12.8770   50.0180    8.8870 O.2   157  PHE157     -0.2864
     69  CB       -13.6830   52.8760    7.9760 C.3   157  PHE157      0.0560
     70  CG       -14.7780   53.8760    7.6810 C.ar  157  PHE157     -0.0200
     71  CD1      -14.5080   55.0590    7.0040 C.ar  157  PHE157     -0.0042
     72  CD2      -16.0830   53.6470    8.1200 C.ar  157  PHE157     -0.0042
     73  CE1      -15.5250   56.0000    6.7750 C.ar  157  PHE157     -0.0003
     74  CE2      -17.0940   54.5760    7.8950 C.ar  157  PHE157     -0.0003
     75  CZ       -16.8150   55.7530    7.2240 C.ar  157  PHE157     -0.0000
     76  N        -12.6210   49.6150   12.3460 N.3   159  TYR159     -0.1227
     77  CA       -13.4050   48.6590   13.1110 C.3   159  TYR159      0.1736
     78  C        -14.2720   47.8350   12.1710 C.2   159  TYR159      0.2595
     79  O        -14.4940   46.6480   12.3930 O.2   159  TYR159     -0.2718
     80  CB       -14.2970   49.3860   14.1170 C.3   159  TYR159      0.0548
     81  CG       -15.2990   48.4790   14.7920 C.ar  159  TYR159     -0.0200
     82  CD1      -14.8820   47.4880   15.6840 C.ar  159  TYR159     -0.0009
     83  CD2      -16.6630   48.5920   14.5220 C.ar  159  TYR159     -0.0009
     84  CE1      -15.8020   46.6310   16.2920 C.ar  159  TYR159      0.0417
     85  CE2      -17.5870   47.7430   15.1220 C.ar  159  TYR159      0.0417
     86  CZ       -17.1490   46.7690   16.0020 C.ar  159  TYR159      0.1957
     87  OH       -18.0570   45.9250   16.5820 O.3   159  TYR159     -0.2866
     88  N        -14.7720   48.4790   11.1230 N.am  160  CYS160     -0.1970
     89  CA       -15.6090   47.8050   10.1380 C.3   160  CYS160      0.1712
     90  C        -14.7930   46.7440    9.4060 C.2   160  CYS160      0.2296
     91  O        -15.2550   45.6170    9.2200 O.2   160  CYS160     -0.2864
     92  CB       -16.1710   48.8220    9.1350 C.3   160  CYS160      0.0983
     93  SG       -17.5230   49.8350    9.7710 S.3   160  CYS160     -0.0798
     94  N        -10.1230   59.4500   16.6780 N.3   195  GLN195     -0.1245
     95  CA       -10.4540   58.9910   15.3430 C.3   195  GLN195      0.1566
     96  C         -9.2100   58.8300   14.4790 C.2   195  GLN195      0.2260
     97  O         -9.1900   58.0580   13.5200 O.2   195  GLN195     -0.2867
     98  CB       -11.4160   59.9740   14.7090 C.3   195  GLN195      0.0367
     99  CG       -12.7840   59.8820   15.3050 C.3   195  GLN195      0.0905
    100  CD       -13.4120   58.5250   15.0700 C.2   195  GLN195      0.2608
    101  OE1      -14.5380   58.2680   15.4850 O.2   195  GLN195     -0.2717
    102  NE2      -12.6870   57.6470   14.3980 N.am  195  GLN195     -0.0878
    103  N        -11.7350   59.8950   22.0280 N.3   202  HIS202     -0.1241
    104  CA       -13.1830   59.8270   22.0960 C.3   202  HIS202      0.1621
    105  C        -13.6620   58.4080   22.3940 C.2   202  HIS202      0.2264
    106  O        -13.0610   57.4340   21.9470 O.2   202  HIS202     -0.2867
    107  CB       -13.6870   60.3230   20.7430 C.3   202  HIS202      0.0745
    108  CG       -15.1690   60.3530   20.5980 C.ar  202  HIS202      0.0817
    109  ND1      -15.9210   59.2140   20.4190 N.ar  202  HIS202     -0.2268
    110  CD2      -16.0330   61.3940   20.5450 C.ar  202  HIS202      0.1154
    111  CE1      -17.1890   59.5530   20.2600 C.ar  202  HIS202      0.1986
    112  NE2      -17.2830   60.8700   20.3310 N.ar  202  HIS202     -0.2212
    113  N        -16.1000   56.6630   21.2550 N.3   204  GLY204     -0.1225
    114  CA       -16.4430   55.8920   20.0760 C.3   204  GLY204      0.1811
    115  C        -15.2170   55.3170   19.3880 C.2   204  GLY204      0.2280
    116  O        -15.1550   54.1160   19.0980 O.2   204  GLY204     -0.2866
    117  N        -13.7790   51.4590   18.9470 N.3   208  CYS208     -0.1235
    118  CA       -13.3600   50.9510   17.6550 C.3   208  CYS208      0.1677
    119  C        -11.9350   50.4370   17.6850 C.2   208  CYS208      0.2270
    120  O        -11.6560   49.3500   17.1800 O.2   208  CYS208     -0.2867
    121  CB       -13.4910   52.0310   16.5890 C.3   208  CYS208      0.0956
    122  SG       -15.1910   52.4200   16.1910 S.3   208  CYS208     -0.0801
    123  N        -19.0030   60.5250   25.9740 N.3   245  GLY245     -0.1210
    124  CA       -17.9600   60.1060   25.0540 C.3   245  GLY245      0.1956
    125  C        -16.6360   60.8370   25.1590 C.2   245  GLY245      0.2611
    126  O        -15.6370   60.3900   24.6030 O.2   245  GLY245     -0.2717
    127  N        -16.6290   61.9610   25.8720 N.am  246  ARG246     -0.1979
    128  CA       -15.4360   62.7900   26.0540 C.3   246  ARG246      0.1597
    129  C        -15.5340   63.5620   27.3660 C.2   246  ARG246      0.2287
    130  O        -16.6310   63.9280   27.8090 O.2   246  ARG246     -0.2864
    131  CB       -15.3260   63.8140   24.9310 C.3   246  ARG246      0.0334
    132  CG       -15.1730   63.2510   23.5650 C.3   246  ARG246      0.0492
    133  CD       -15.1030   64.3800   22.5750 C.3   246  ARG246      0.2205
    134  NE       -16.3990   64.7170   22.0090 N.pl3 246  ARG246     -0.0865
    135  CZ       -16.6110   65.7640   21.2210 C.cat 246  ARG246      0.5346
    136  NH1      -15.6170   66.5820   20.9150 N.pl3 246  ARG246      0.1354
    137  NH2      -17.8130   65.9790   20.7230 N.pl3 246  ARG246      0.1354
    138  N        -18.3180   66.3630   28.7020 N.3   249  LYS249     -0.1245
    139  CA       -19.3940   66.2900   27.7150 C.3   249  LYS249      0.1561
    140  C        -20.5610   65.5660   28.4100 C.2   249  LYS249      0.2260
    141  O        -20.3460   64.6610   29.2230 O.2   249  LYS249     -0.2867
    142  CB       -18.9090   65.4850   26.5140 C.3   249  LYS249      0.0271
    143  CG       -19.5910   65.7930   25.2080 C.3   249  LYS249      0.0035
    144  CD       -19.0050   67.0100   24.5350 C.3   249  LYS249      0.0206
    145  CE       -19.4600   67.0290   23.0820 C.3   249  LYS249      0.1093
    146  NZ       -20.9150   66.7430   22.9010 N.3   249  LYS249     -0.1314
    147  N        -24.6370   60.1990   27.2970 N.3   252  ASP252     -0.1239
    148  CA       -25.4670   59.8000   26.1750 C.3   252  ASP252      0.1674
    149  C        -25.6340   58.2770   26.2840 C.2   252  ASP252      0.2266
    150  O        -24.6500   57.5390   26.3670 O.2   252  ASP252     -0.2867
    151  CB       -24.7380   60.1930   24.8730 C.3   252  ASP252      0.1410
    152  CG       -25.4120   59.6610   23.6050 C.2   252  ASP252      0.3668
    153  OD1      -26.2580   58.7350   23.6790 O.co2 252  ASP252     -0.2456
    154  OD2      -25.0590   60.1730   22.5170 O.co2 252  ASP252     -0.2456
    155  N        -26.0280   55.7670   24.3000 N.3   254  CYS254     -0.1221
    156  CA       -25.2250   54.8570   23.5030 C.3   254  CYS254      0.1808
    157  C        -23.8130   54.6000   24.0370 C.2   254  CYS254      0.2601
    158  O        -23.2100   53.5660   23.7400 O.2   254  CYS254     -0.2717
    159  CB       -25.1890   55.3060   22.0310 C.3   254  CYS254      0.0970
    160  SG       -24.2430   56.7970   21.5980 S.3   254  CYS254     -0.0800
    161  N        -23.2860   55.5170   24.8400 N.am  255  TYR255     -0.1976
    162  CA       -21.9450   55.3220   25.3830 C.3   255  TYR255      0.1639
    163  C        -21.8860   54.2580   26.4650 C.2   255  TYR255      0.2290
    164  O        -20.7970   53.8280   26.8570 O.2   255  TYR255     -0.2864
    165  CB       -21.3700   56.6510   25.8740 C.3   255  TYR255      0.0560
    166  CG       -20.9640   57.4910   24.6990 C.ar  255  TYR255     -0.0198
    167  CD1      -19.8630   57.1340   23.9240 C.ar  255  TYR255     -0.0009
    168  CD2      -21.7710   58.5310   24.2530 C.ar  255  TYR255     -0.0009
    169  CE1      -19.5840   57.7740   22.7330 C.ar  255  TYR255      0.0417
    170  CE2      -21.5000   59.1810   23.0500 C.ar  255  TYR255      0.0417
    171  CZ       -20.4040   58.7840   22.2960 C.ar  255  TYR255      0.1957
    172  OH       -20.1600   59.3450   21.0730 O.3   255  TYR255     -0.2866
    173  N        -20.6270   51.8200   23.9380 N.3   258  TRP258     -0.1241
    174  CA       -19.3210   52.1990   23.4020 C.3   258  TRP258      0.1605
    175  C        -18.2230   52.0940   24.4650 C.2   258  TRP258      0.2264
    176  O        -17.2260   51.3910   24.2640 O.2   258  TRP258     -0.2867
    177  CB       -19.3470   53.6310   22.8500 C.3   258  TRP258      0.0550
    178  CG       -20.2400   53.8590   21.6540 C.ar  258  TRP258      0.0003
    179  CD1      -21.2080   54.8150   21.5270 C.ar  258  TRP258      0.0946
    180  CD2      -20.2070   53.1600   20.4100 C.ar  258  TRP258      0.0152
    181  NE1      -21.7780   54.7570   20.2810 N.ar  258  TRP258     -0.2442
    182  CE2      -21.1820   53.7500   19.5710 C.ar  258  TRP258      0.0810
    183  CE3      -19.4490   52.0950   19.9170 C.ar  258  TRP258      0.0012
    184  CZ2      -21.4150   53.3090   18.2600 C.ar  258  TRP258      0.0191
    185  CZ3      -19.6820   51.6590   18.6150 C.ar  258  TRP258      0.0001
    186  CH2      -20.6590   52.2690   17.8020 C.ar  258  TRP258      0.0015
    187  N        -31.0330   59.3330   23.4250 N.3   294  LYS294     -0.1245
    188  CA       -29.7130   59.5980   23.9740 C.3   294  LYS294      0.1561
    189  C        -29.8550   60.2240   25.3580 C.2   294  LYS294      0.2260
    190  O        -29.1000   59.8970   26.2660 O.2   294  LYS294     -0.2867
    191  CB       -28.8940   60.5040   23.0450 C.3   294  LYS294      0.0271
    192  CG       -29.3830   61.9270   22.9190 C.3   294  LYS294      0.0035
    193  CD       -28.5360   62.7390   21.9260 C.3   294  LYS294      0.0206
    194  CE       -27.0940   62.9110   22.4100 C.3   294  LYS294      0.1093
    195  NZ       -26.2630   63.7720   21.4960 N.3   294  LYS294     -0.1314
    196  N        -28.2960   50.2410   21.2270 N.3   307  PHE307     -0.1241
    197  CA       -27.1590   50.4060   22.1220 C.3   307  PHE307      0.1605
    198  C        -27.5910   50.5190   23.5710 C.2   307  PHE307      0.2264
    199  O        -26.8660   50.0970   24.4670 O.2   307  PHE307     -0.2867
    200  CB       -26.3150   51.6060   21.7070 C.3   307  PHE307      0.0534
    201  CG       -25.4920   51.3520   20.4860 C.ar  307  PHE307     -0.0203
    202  CD1      -25.7000   52.0730   19.3170 C.ar  307  PHE307     -0.0042
    203  CD2      -24.5330   50.3540   20.4870 C.ar  307  PHE307     -0.0042
    204  CE1      -24.9620   51.7940   18.1700 C.ar  307  PHE307     -0.0003
    205  CE2      -23.7870   50.0680   19.3380 C.ar  307  PHE307     -0.0003
    206  CZ       -24.0020   50.7880   18.1840 C.ar  307  PHE307     -0.0000
    207  N        -20.2530   43.0220   18.5560 N.3   328  ASN328     -0.1240
    208  CA       -21.5200   43.7390   18.5980 C.3   328  ASN328      0.1653
    209  C        -22.7200   42.9380   18.0610 C.2   328  ASN328      0.2266
    210  O        -23.5410   43.4510   17.2930 O.2   328  ASN328     -0.2867
    211  CB       -21.3420   45.0720   17.8560 C.3   328  ASN328      0.1155
    212  CG       -22.4230   46.0970   18.1790 C.2   328  ASN328      0.2627
    213  OD1      -23.1200   46.0160   19.1950 O.2   328  ASN328     -0.2716
    214  ND2      -22.5450   47.0900   17.3070 N.am  328  ASN328     -0.0877
@<TRIPOS>BOND
     1    30    31    1
     2    35    36    1
     3    32    31    1
     4    32    33    2
     5    73    71   ar
     6    73    75   ar
     7    71    70   ar
     8    31    34    1
     9    75    74   ar
    10    70    69    1
    11    70    72   ar
    12    74    72   ar
    13    36    37    1
    14    36    39    1
    15    52    51    1
    16    69    66    1
    17     1     2    1
    18    49    50    2
    19    49    48    1
    20    37    47   am
    21    37    38    2
    22     7     5    1
    23    47    48    1
    24    39    40    1
    25    68    67    2
    26    64    62    1
    27    48    51    1
    28    92    93    1
    29    92    89    1
    30    51    53    1
    31    91    90    2
    32    66    67    1
    33    66    65    1
    34    90    89    1
    35     2     5    1
    36     2     3    1
    37     5     6    1
    38    63    62    1
    39    62    61    2
    40    89    88    1
    41    40    42   ar
    42    40    41   ar
    43     3     4    2
    44    65    56   am
    45     8     9    1
    46    42    44   ar
    47    61    60    1
    48    41    43   ar
    49    88    78   am
    50    56    57    2
    51    56    55    1
    52    12     9    1
    53    12    13    1
    54     9    10    1
    55    58    55    1
    56    58    59    1
    57    60    59    1
    58    78    79    2
    59    78    77    1
    60    44    45   ar
    61    76    77    1
    62    43    45   ar
    63    55    54    1
    64    13    14   ar
    65    13    15   ar
    66    14    16   ar
    67    45    46    1
    68    77    80    1
    69    10    19   am
    70    10    11    2
    71    97    96    2
    72    19    20    1
    73    15    17   ar
    74    16    18   ar
    75    80    81    1
    76    27    25   ar
    77    27    29   ar
    78    25    24   ar
    79   102   100   am
    80    96    95    1
    81    29    28   ar
    82    83    81   ar
    83    83    85   ar
    84    17    18   ar
    85    98    99    1
    86    98    95    1
    87    81    82   ar
    88    24    23    1
    89    24    26   ar
    90    20    23    1
    91    20    21    1
    92    28    26   ar
    93   100    99    1
    94   100   101    2
    95    85    86   ar
    96    21    22    2
    97    95    94    1
    98    82    84   ar
    99    86    84   ar
   100    86    87    1
   101   122   121    1
   102   121   118    1
   103   120   119    2
   104   210   209    2
   105   214   212   am
   106   118   119    1
   107   118   117    1
   108   186   184   ar
   109   186   185   ar
   110   211   212    1
   111   211   208    1
   112   209   208    1
   113   204   206   ar
   114   204   202   ar
   115   212   213    2
   116   206   205   ar
   117   184   182   ar
   118   207   208    1
   119   185   183   ar
   120   116   115    2
   121   202   201   ar
   122   205   203   ar
   123   115   114    1
   124   182   181   ar
   125   182   180   ar
   126   183   180   ar
   127   114   113    1
   128   111   112   ar
   129   111   109   ar
   130   181   179   ar
   131   112   110   ar
   132   180   178   ar
   133   109   108   ar
   134   201   203   ar
   135   201   200    1
   136   110   108   ar
   137   108   107    1
   138   137   135    1
   139   107   104    1
   140   136   135    1
   141   172   171    1
   142   135   134    2
   143   196   197    1
   144   195   194    1
   145   179   178   ar
   146   160   159    1
   147   178   177    1
   148   200   197    1
   149   193   194    1
   150   193   192    1
   151   106   105    2
   152   134   133    1
   153   103   104    1
   154   159   156    1
   155   104   105    1
   156   197   198    1
   157   171   169   ar
   158   171   170   ar
   159   154   152   ar
   160   133   132    1
   161   169   167   ar
   162   177   174    1
   163   146   145    1
   164   192   191    1
   165   191   188    1
   166   170   168   ar
   167   145   144    1
   168   174   173    1
   169   174   175    1
   170   187   188    1
   171   156   157    1
   172   156   155    1
   173   132   131    1
   174   198   199    2
   175   152   153   ar
   176   152   151    1
   177   158   157    2
   178   167   166   ar
   179   188   189    1
   180   157   161   am
   181   168   166   ar
   182   176   175    2
   183   144   143    1
   184   126   125    2
   185   166   165    1
   186   161   162    1
   187   151   148    1
   188   131   128    1
   189   124   125    1
   190   124   123    1
   191   125   127   am
   192   143   142    1
   193   189   190    2
   194   162   165    1
   195   162   163    1
   196   127   128    1
   197   128   129    1
   198   148   149    1
   199   148   147    1
   200   149   150    2
   201   163   164    2
   202   142   139    1
   203   129   130    2
   204   139   140    1
   205   139   138    1
   206   140   141    2
