@<TRIPOS>MOLECULE
tmp/1toiA00.pdb
 129 123 0 0 0
SMALL
GASTEIGER

@<TRIPOS>ATOM
      1  N         67.7330   49.0070   31.1540 N.3    13  ILE13      -0.1231
      2  CA        68.0800   50.4080   31.3930 C.3    13  ILE13       0.1692
      3  C         67.9210   51.2620   30.1400 C.2    13  ILE13       0.2591
      4  O         67.2480   52.2990   30.1530 O.2    13  ILE13      -0.2718
      5  CB        69.5110   50.5290   31.9660 C.3    13  ILE13       0.0266
      6  CG1       69.5710   49.8800   33.3590 C.3    13  ILE13       0.0019
      7  CG2       69.9420   51.9980   32.0170 C.3    13  ILE13       0.0020
      8  CD1       70.9580   49.8140   33.9690 C.3    13  ILE13       0.0001
      9  N         68.5390   50.8210   29.0530 N.am   14  LEU14      -0.1980
     10  CA        68.5950   51.6200   27.8380 C.3    14  LEU14       0.1596
     11  C         67.2400   51.7540   27.1540 C.2    14  LEU14       0.2287
     12  O         66.9900   52.7390   26.4650 O.2    14  LEU14      -0.2864
     13  CB        69.6390   51.0520   26.8720 C.3    14  LEU14       0.0297
     14  CG        71.0800   51.1170   27.3930 C.3    14  LEU14       0.0022
     15  CD1       72.0520   50.4850   26.3920 C.3    14  LEU14       0.0001
     16  CD2       71.5010   52.5510   27.7630 C.3    14  LEU14       0.0001
     17  N         67.7860   56.2000   33.4100 N.3    33  ILE33      -0.1231
     18  CA        69.2160   56.2280   33.0610 C.3    33  ILE33       0.1692
     19  C         69.9940   57.2490   33.9040 C.2    33  ILE33       0.2593
     20  O         69.5070   58.3500   34.1660 O.2    33  ILE33      -0.2718
     21  CB        69.4020   56.5020   31.5360 C.3    33  ILE33       0.0266
     22  CG1       68.5980   55.4800   30.7240 C.3    33  ILE33       0.0019
     23  CG2       70.8750   56.4120   31.1500 C.3    33  ILE33       0.0020
     24  CD1       68.6230   55.7060   29.2300 C.3    33  ILE33       0.0001
     25  N         71.1930   56.8680   34.3440 N.am   34  GLY34      -0.1942
     26  CA        71.9420   57.6840   35.3110 C.3    34  GLY34       0.2014
     27  C         72.6700   58.8710   34.6920 C.2    34  GLY34       0.2638
     28  O         73.8740   58.8100   34.4360 O.2    34  GLY34      -0.2714
     29  N         71.9430   59.9650   34.4900 N.am   35  LEU35      -0.1977
     30  CA        72.5510   61.2260   34.0570 C.3    35  LEU35       0.1596
     31  C         72.3720   62.2530   35.1680 C.2    35  LEU35       0.2287
     32  O         71.3950   62.1850   35.9270 O.2    35  LEU35      -0.2864
     33  CB        71.8610   61.7210   32.7870 C.3    35  LEU35       0.0297
     34  CG        72.0660   60.7680   31.5980 C.3    35  LEU35       0.0022
     35  CD1       70.7120   60.3000   31.0680 C.3    35  LEU35       0.0001
     36  CD2       72.8700   61.4740   30.5480 C.3    35  LEU35       0.0001
     37  N         82.2550   51.8560   28.6300 N.3   104  SER104     -0.1217
     38  CA        81.6240   50.7090   27.9710 C.3   104  SER104      0.1889
     39  C         82.5910   50.1470   26.9470 C.2   104  SER104      0.2288
     40  O         82.8460   48.9460   26.9200 O.2   104  SER104     -0.2866
     41  CB        80.3080   51.1020   27.2870 C.3   104  SER104      0.2089
     42  OG        79.3000   51.4380   28.2340 O.3   104  SER104     -0.2183
     43  N         75.1320   45.4040   37.4070 N.3   130  TRP130     -0.1241
     44  CA        74.8180   46.3050   36.3090 C.3   130  TRP130      0.1605
     45  C         74.6910   45.4220   35.0710 C.2   130  TRP130      0.2264
     46  O         75.6250   44.6870   34.7480 O.2   130  TRP130     -0.2867
     47  CB        75.9820   47.2700   36.1650 C.3   130  TRP130      0.0550
     48  CG        75.7800   48.3950   35.2190 C.ar  130  TRP130      0.0003
     49  CD1       74.8440   49.3890   35.3030 C.ar  130  TRP130      0.0946
     50  CD2       76.6080   48.7100   34.0970 C.ar  130  TRP130      0.0152
     51  NE1       75.0300   50.2950   34.2860 N.ar  130  TRP130     -0.2442
     52  CE2       76.1100   49.9020   33.5300 C.ar  130  TRP130      0.0810
     53  CE3       77.7320   48.1010   33.5080 C.ar  130  TRP130      0.0012
     54  CZ2       76.6820   50.4900   32.3860 C.ar  130  TRP130      0.0191
     55  CZ3       78.3000   48.6860   32.3680 C.ar  130  TRP130      0.0001
     56  CH2       77.7700   49.8620   31.8200 C.ar  130  TRP130      0.0015
     57  N         74.8310   45.5280   31.8470 N.3   132  ASN132     -0.1240
     58  CA        75.7680   45.5360   30.7280 C.3   132  ASN132      0.1653
     59  C         77.0100   44.6760   30.9540 C.2   132  ASN132      0.2266
     60  O         77.6140   44.2180   29.9910 O.2   132  ASN132     -0.2867
     61  CB        76.1740   46.9590   30.3390 C.3   132  ASN132      0.1155
     62  CG        75.3970   47.4910   29.1410 C.2   132  ASN132      0.2627
     63  OD1       75.8990   48.3590   28.4030 O.2   132  ASN132     -0.2716
     64  ND2       74.1900   46.9790   28.9310 N.am  132  ASN132     -0.0877
     65  N         76.9470   50.3460   41.4030 N.3   183  ASN183     -0.1240
     66  CA        75.7250   50.5160   40.6160 C.3   183  ASN183      0.1653
     67  C         75.1060   49.1320   40.5490 C.2   183  ASN183      0.2266
     68  O         75.6830   48.2710   39.8810 O.2   183  ASN183     -0.2867
     69  CB        76.1170   50.9990   39.2120 C.3   183  ASN183      0.1155
     70  CG        74.9130   51.3800   38.3360 C.2   183  ASN183      0.2627
     71  OD1       73.7740   50.9700   38.5870 O.2   183  ASN183     -0.2716
     72  ND2       75.1820   52.1410   37.2800 N.am  183  ASN183     -0.0877
     73  N         82.5370   56.4020   38.4100 N.3   214  TYR214     -0.1241
     74  CA        81.9910   57.4370   39.2900 C.3   214  TYR214      0.1605
     75  C         83.0300   58.1380   40.1620 C.2   214  TYR214      0.2264
     76  O         82.6880   58.6140   41.2430 O.2   214  TYR214     -0.2867
     77  CB        80.8590   56.8750   40.1610 C.3   214  TYR214      0.0534
     78  CG        79.6310   56.5410   39.3650 C.ar  214  TYR214     -0.0201
     79  CD1       78.7390   57.5470   38.9690 C.ar  214  TYR214     -0.0009
     80  CD2       79.3800   55.2280   38.9550 C.ar  214  TYR214     -0.0009
     81  CE1       77.6150   57.2510   38.2230 C.ar  214  TYR214      0.0417
     82  CE2       78.2570   54.9240   38.2000 C.ar  214  TYR214      0.0417
     83  CZ        77.3790   55.9360   37.8500 C.ar  214  TYR214      0.1957
     84  OH        76.2680   55.6420   37.1050 O.3   214  TYR214     -0.2866
     85  N         78.7980   62.3160   28.5620 N.3   250  TYR250     -0.1241
     86  CA        78.1490   61.0640   28.1780 C.3   250  TYR250      0.1605
     87  C         78.2640   60.7460   26.6890 C.2   250  TYR250      0.2264
     88  O         78.8080   59.7040   26.3250 O.2   250  TYR250     -0.2867
     89  CB        76.6640   61.0750   28.5880 C.3   250  TYR250      0.0534
     90  CG        76.4120   61.6060   29.9910 C.ar  250  TYR250     -0.0201
     91  CD1       76.3700   60.7420   31.0800 C.ar  250  TYR250     -0.0009
     92  CD2       76.1570   62.9690   30.2120 C.ar  250  TYR250     -0.0009
     93  CE1       76.1380   61.2210   32.3820 C.ar  250  TYR250      0.0417
     94  CE2       75.9270   63.4670   31.5190 C.ar  250  TYR250      0.0417
     95  CZ        75.9100   62.5720   32.5940 C.ar  250  TYR250      0.1957
     96  OH        75.6780   63.0240   33.8830 O.3   250  TYR250     -0.2866
     97  N         81.6760   59.8490   24.4910 N.3   253  ARG253     -0.1245
     98  CA        82.2740   58.5110   24.7080 C.3   253  ARG253      0.1563
     99  C         83.7350   58.5820   25.1120 C.2   253  ARG253      0.2260
    100  O         84.6410   58.2910   24.3220 O.2   253  ARG253     -0.2867
    101  CB        82.0580   57.5700   23.5030 C.3   253  ARG253      0.0307
    102  CG        80.6990   57.7320   22.8280 C.3   253  ARG253      0.0489
    103  CD        79.5030   57.5080   23.7540 C.3   253  ARG253      0.2205
    104  NE        79.5320   56.1480   24.2990 N.pl3 253  ARG253     -0.0865
    105  CZ        79.6060   55.8420   25.5870 C.cat 253  ARG253      0.5346
    106  NH1       79.6430   56.7970   26.5170 N.pl3 253  ARG253      0.1354
    107  NH2       79.6400   54.5670   25.9480 N.pl3 253  ARG253      0.1354
    108  N         72.2800   57.2090   42.6330 N.3   347  PHE347     -0.1241
    109  CA        71.0910   56.3820   42.6900 C.3   347  PHE347      0.1605
    110  C         70.6360   56.1230   44.1060 C.2   347  PHE347      0.2264
    111  O         71.3990   56.2670   45.0790 O.2   347  PHE347     -0.2867
    112  CB        71.3090   55.0370   41.9860 C.3   347  PHE347      0.0534
    113  CG        71.7330   55.1490   40.5480 C.ar  347  PHE347     -0.0203
    114  CD1       70.8460   55.5980   39.5700 C.ar  347  PHE347     -0.0042
    115  CD2       73.0080   54.7550   40.1660 C.ar  347  PHE347     -0.0042
    116  CE1       71.2520   55.6790   38.2350 C.ar  347  PHE347     -0.0003
    117  CE2       73.4260   54.8260   38.8420 C.ar  347  PHE347     -0.0003
    118  CZ        72.5440   55.2950   37.8720 C.ar  347  PHE347     -0.0000
    119  N         65.9860   50.6300   41.1050 N.3   373  ARG373     -0.1245
    120  CA        66.9890   51.6850   41.1000 C.3   373  ARG373      0.1563
    121  C         66.3780   52.9960   40.6030 C.2   373  ARG373      0.2260
    122  O         65.8230   53.0590   39.5010 O.2   373  ARG373     -0.2867
    123  CB        68.1550   51.2830   40.2020 C.3   373  ARG373      0.0307
    124  CG        69.3840   52.1940   40.3270 C.3   373  ARG373      0.0489
    125  CD        70.3440   51.9870   39.1650 C.3   373  ARG373      0.2205
    126  NE        69.8870   52.6790   37.9570 N.pl3 373  ARG373     -0.0865
    127  CZ        70.5630   52.6830   36.8080 C.cat 373  ARG373      0.5346
    128  NH1       71.6890   51.9880   36.6970 N.pl3 373  ARG373      0.1354
    129  NH2       70.1070   53.3680   35.7670 N.pl3 373  ARG373      0.1354
@<TRIPOS>BOND
     1   102   101    1
     2   102   103    1
     3   101    98    1
     4   103   104    1
     5   104   105    2
     6   100    99    2
     7    97    98    1
     8    98    99    1
     9   105   107    1
    10   105   106    1
    11    88    87    2
    12    15    14    1
    13    12    11    2
    14    87    86    1
    15    13    14    1
    16    13    10    1
    17    40    39    2
    18    39    38    1
    19    11    10    1
    20    41    38    1
    21    41    42    1
    22    14    16    1
    23    10     9    1
    24    38    37    1
    25    86    85    1
    26    86    89    1
    27    63    62    2
    28    89    90    1
    29    64    62   am
    30     9     3   am
    31    62    61    1
    32    24    22    1
    33    90    92   ar
    34    90    91   ar
    35    60    59    2
    36     3     4    2
    37     3     2    1
    38    92    94   ar
    39    61    58    1
    40    36    34    1
    41    22    21    1
    42    58    59    1
    43    58    57    1
    44    35    34    1
    45    91    93   ar
    46    23    21    1
    47     1     2    1
    48     2     5    1
    49    94    95   ar
    50    21    18    1
    51    34    33    1
    52    56    55   ar
    53    56    54   ar
    54     5     7    1
    55     5     6    1
    56    55    53   ar
    57    93    95   ar
    58    54    52   ar
    59    95    96    1
    60    33    30    1
    61    18    17    1
    62    18    19    1
    63     6     8    1
    64    53    50   ar
    65    52    50   ar
    66    52    51   ar
    67    19    20    2
    68    19    25   am
    69    30    29    1
    70    30    31    1
    71    50    48   ar
    72    51    49   ar
    73    25    26    1
    74    28    27    2
    75    29    27   am
    76    27    26    1
    77    46    45    2
    78    45    44    1
    79    31    32    2
    80    48    49   ar
    81    48    47    1
    82   129   127    1
    83    47    44    1
    84    44    43    1
    85   128   127    1
    86   127   126    2
    87    84    83    1
    88    72    70   am
    89    83    82   ar
    90    83    81   ar
    91   118   116   ar
    92   118   117   ar
    93   126   125    1
    94    82    80   ar
    95    81    79   ar
    96   116   114   ar
    97    70    71    2
    98    70    69    1
    99    73    74    1
   100   117   115   ar
   101    80    78   ar
   102    79    78   ar
   103   125   124    1
   104    69    66    1
   105    74    77    1
   106    74    75    1
   107    78    77    1
   108   122   121    2
   109   114   113   ar
   110    68    67    2
   111    75    76    2
   112   115   113   ar
   113   123   124    1
   114   123   120    1
   115   113   112    1
   116    67    66    1
   117   121   120    1
   118    66    65    1
   119   120   119    1
   120   112   109    1
   121   108   109    1
   122   109   110    1
   123   110   111    2
