@<TRIPOS>MOLECULE
tmp/1tomB01.pdb
 167 167 0 0 0
SMALL
GASTEIGER

@<TRIPOS>ATOM
      1  N         22.3840   -7.0510   18.5990 N.3    43  HIS43      -0.1241
      2  CA        22.2280   -8.4270   18.1970 C.3    43  HIS43       0.1621
      3  C         21.4740   -8.5080   16.8600 C.2    43  HIS43       0.2264
      4  O         21.4600   -9.5590   16.2220 O.2    43  HIS43      -0.2867
      5  CB        21.5020   -9.2110   19.3280 C.3    43  HIS43       0.0745
      6  CG        19.9820   -9.0960   19.4310 C.ar   43  HIS43       0.0817
      7  ND1       19.1780   -8.3430   20.1880 N.ar   43  HIS43      -0.2268
      8  CD2       19.1590   -9.8750   18.6480 C.ar   43  HIS43       0.1154
      9  CE1       17.9300   -8.6470   19.8910 C.ar   43  HIS43       0.1986
     10  NE2       17.9440   -9.5670   18.9570 N.ar   43  HIS43      -0.2212
     11  N         25.8430  -11.2290   15.7490 N.3    47  TYR47      -0.1241
     12  CA        25.5950  -12.2980   16.6890 C.3    47  TYR47       0.1605
     13  C         26.2860  -13.5200   16.0980 C.2    47  TYR47       0.2264
     14  O         25.6410  -14.3800   15.4740 O.2    47  TYR47      -0.2867
     15  CB        24.1300  -12.6120   16.8560 C.3    47  TYR47       0.0534
     16  CG        23.9560  -13.5250   18.0530 C.ar   47  TYR47      -0.0201
     17  CD1       24.4300  -13.1030   19.2820 C.ar   47  TYR47      -0.0009
     18  CD2       23.3550  -14.7560   17.9150 C.ar   47  TYR47      -0.0009
     19  CE1       24.3010  -13.9200   20.3870 C.ar   47  TYR47       0.0417
     20  CE2       23.2220  -15.5690   19.0250 C.ar   47  TYR47       0.0417
     21  CZ        23.7010  -15.1480   20.2570 C.ar   47  TYR47       0.1957
     22  OH        23.5830  -15.9660   21.3640 O.3    47  TYR47      -0.2866
     23  N         25.1690  -17.4550   15.6090 N.3    50  TRP50      -0.1241
     24  CA        24.2900  -17.8100   14.5060 C.3    50  TRP50       0.1605
     25  C         24.8890  -17.2520   13.2310 C.2    50  TRP50       0.2264
     26  O         24.1790  -17.0860   12.2470 O.2    50  TRP50      -0.2867
     27  CB        22.8810  -17.2180   14.7200 C.3    50  TRP50       0.0550
     28  CG        22.1090  -17.6380   15.9720 C.ar   50  TRP50       0.0003
     29  CD1       22.4440  -18.7330   16.7370 C.ar   50  TRP50       0.0946
     30  CD2       21.0340  -16.9750   16.4930 C.ar   50  TRP50       0.0152
     31  NE1       21.5980  -18.7610   17.7370 N.ar   50  TRP50      -0.2442
     32  CE2       20.7470  -17.7360   17.6280 C.ar   50  TRP50       0.0810
     33  CE3       20.2690  -15.8630   16.1840 C.ar   50  TRP50       0.0012
     34  CZ2       19.7120  -17.4280   18.4880 C.ar   50  TRP50       0.0191
     35  CZ3       19.2230  -15.5510   17.0490 C.ar   50  TRP50       0.0001
     36  CH2       18.9460  -16.3190   18.1860 C.ar   50  TRP50       0.0015
     37  N         28.1460  -10.3540   23.3910 N.3    92  TRP92      -0.1241
     38  CA        27.4500  -11.3980   22.6620 C.3    92  TRP92       0.1605
     39  C         27.8720  -12.7910   23.1320 C.2    92  TRP92       0.2264
     40  O         27.1620  -13.7690   22.8540 O.2    92  TRP92      -0.2867
     41  CB        27.7040  -11.2640   21.1530 C.3    92  TRP92       0.0550
     42  CG        29.1530  -11.3160   20.6890 C.ar   92  TRP92       0.0003
     43  CD1       29.8020  -10.1360   20.4590 C.ar   92  TRP92       0.0946
     44  CD2       29.9260  -12.4420   20.4430 C.ar   92  TRP92       0.0152
     45  NE1       30.9860  -10.5120   20.0680 N.ar   92  TRP92      -0.2442
     46  CE2       31.1140  -11.8560   20.0380 C.ar   92  TRP92       0.0810
     47  CE3       29.8270  -13.8200   20.4780 C.ar   92  TRP92       0.0012
     48  CZ2       32.2250  -12.6140   19.6680 C.ar   92  TRP92       0.0191
     49  CZ3       30.9230  -14.5690   20.1070 C.ar   92  TRP92       0.0001
     50  CH2       32.1090  -13.9860   19.7080 C.ar   92  TRP92       0.0015
     51  N         28.1200  -13.8980   26.2820 N.3    94  GLU94      -0.1231
     52  CA        27.4760  -14.3710   27.4670 C.3    94  GLU94       0.1699
     53  C         25.9900  -14.0690   27.6490 C.2    94  GLU94       0.2592
     54  O         25.1370  -14.9660   27.6310 O.2    94  GLU94      -0.2718
     55  CB        28.3150  -13.8140   28.5950 C.3    94  GLU94       0.0402
     56  CG        27.9550  -14.4960   29.8770 C.3    94  GLU94       0.1161
     57  CD        28.3150  -13.7490   31.1570 C.2    94  GLU94       0.3649
     58  OE1       29.0740  -12.7660   31.1400 O.co2  94  GLU94      -0.2457
     59  OE2       27.7980  -14.1740   32.1920 O.co2  94  GLU94      -0.2457
     60  N         25.6360  -12.8100   27.8650 N.am   95  ASN95      -0.1960
     61  CA        24.2810  -12.4500   28.2560 C.3    95  ASN95       0.1819
     62  C         23.6880  -11.2740   27.4840 C.2    95  ASN95       0.2621
     63  O         22.6980  -10.7380   27.9590 O.2    95  ASN95      -0.2715
     64  CB        24.2960  -12.1260   29.7540 C.3    95  ASN95       0.1195
     65  CG        25.2630  -11.0010   30.1240 C.2    95  ASN95       0.2630
     66  OD1       26.0580  -10.5020   29.3150 O.2    95  ASN95      -0.2716
     67  ND2       25.3180  -10.5720   31.3680 N.am   95  ASN95      -0.0877
     68  N         24.2710  -10.8610   26.3380 N.am   96  LEU96      -0.1977
     69  CA        23.8740   -9.6910   25.5320 C.3    96  LEU96       0.1596
     70  C         23.8680   -8.3600   26.3050 C.2    96  LEU96       0.2287
     71  O         23.0520   -7.4490   26.1050 O.2    96  LEU96      -0.2864
     72  CB        22.4680   -9.8580   24.8960 C.3    96  LEU96       0.0297
     73  CG        22.2060  -10.9580   23.9060 C.3    96  LEU96       0.0022
     74  CD1       20.8480  -10.6650   23.3030 C.3    96  LEU96       0.0001
     75  CD2       23.3000  -11.0610   22.8750 C.3    96  LEU96       0.0001
     76  N         20.4060  -16.7590   33.3080 N.3   171  ILE171     -0.1245
     77  CA        21.3800  -15.9100   32.6080 C.3   171  ILE171      0.1561
     78  C         21.6730  -14.7520   33.5580 C.2   171  ILE171      0.2260
     79  O         20.7890  -14.3190   34.3040 O.2   171  ILE171     -0.2867
     80  CB        20.7500  -15.4650   31.2250 C.3   171  ILE171      0.0252
     81  CG1       20.8600  -16.7060   30.3580 C.3   171  ILE171      0.0019
     82  CG2       21.3820  -14.2300   30.5780 C.3   171  ILE171      0.0019
     83  CD1       20.3520  -16.5870   28.9490 C.3   171  ILE171      0.0001
     84  N          3.8360   -9.9010   25.1460 N.3   191  ASP191     -0.1225
     85  CA         5.2890   -9.9210   25.0720 C.3   191  ASP191      0.1805
     86  C          5.7400   -9.5630   23.6420 C.2   191  ASP191      0.2598
     87  O          4.9630   -9.5220   22.6680 O.2   191  ASP191     -0.2718
     88  CB         5.8170  -11.3360   25.4570 C.3   191  ASP191      0.1424
     89  CG         7.3460  -11.4860   25.6360 C.2   191  ASP191      0.3668
     90  OD1        8.0920  -10.5160   25.8280 O.co2 191  ASP191     -0.2456
     91  OD2        7.8280  -12.6020   25.5550 O.co2 191  ASP191     -0.2456
     92  N          7.0280   -9.2470   23.4680 N.am  192  ALA192     -0.1966
     93  CA         7.6330   -9.1410   22.1710 C.3   192  ALA192      0.1728
     94  C          7.9400  -10.5930   21.7560 C.2   192  ALA192      0.2616
     95  O          7.9780  -11.5460   22.5770 O.2   192  ALA192     -0.2715
     96  CB         8.9520   -8.3900   22.2350 C.3   192  ALA192      0.0334
     97  N          8.1640  -10.8040   20.4640 N.am  193  CYS193     -0.1954
     98  CA         8.4760  -12.1300   19.9640 C.3   193  CYS193      0.1843
     99  C          9.4130  -11.9400   18.7830 C.2   193  CYS193      0.2625
    100  O          9.8630  -10.7970   18.5430 O.2   193  CYS193     -0.2714
    101  CB         7.1850  -12.8530   19.5690 C.3   193  CYS193      0.0997
    102  SG         7.3770  -14.6660   19.5160 S.3   193  CYS193     -0.0797
    103  N          9.7870  -13.0250   18.0750 N.am  194  GLU194     -0.1977
    104  CA        10.8290  -12.9320   17.0750 C.3   194  GLU194      0.1602
    105  C         10.5200  -11.8940   16.0090 C.2   194  GLU194      0.2287
    106  O          9.3630  -11.7710   15.6360 O.2   194  GLU194     -0.2864
    107  CB        11.0110  -14.2940   16.4460 C.3   194  GLU194      0.0415
    108  CG        12.3640  -14.3660   15.7880 C.3   194  GLU194      0.1163
    109  CD        12.4790  -15.5070   14.8060 C.2   194  GLU194      0.3649
    110  OE1       12.2060  -16.6570   15.1820 O.co2 194  GLU194     -0.2457
    111  OE2       12.8440  -15.2290   13.6590 O.co2 194  GLU194     -0.2457
    112  N         12.8460   -7.7350   17.8340 N.3   197  SER197     -0.1217
    113  CA        14.1980   -7.3530   18.2360 C.3   197  SER197      0.1889
    114  C         14.6190   -5.9600   17.8230 C.2   197  SER197      0.2288
    115  O         14.3620   -5.6080   16.6800 O.2   197  SER197     -0.2866
    116  CB        15.2190   -8.3170   17.6350 C.3   197  SER197      0.2089
    117  OG        15.2920   -9.5240   18.3810 O.3   197  SER197     -0.2183
    118  N         14.0420   -3.8600   22.8220 N.3   217  VAL217     -0.1231
    119  CA        13.7450   -5.2840   22.8980 C.3   217  VAL217      0.1692
    120  C         15.0490   -6.0540   22.7030 C.2   217  VAL217      0.2593
    121  O         15.6540   -6.0440   21.6120 O.2   217  VAL217     -0.2718
    122  CB        12.7210   -5.6570   21.7790 C.3   217  VAL217      0.0266
    123  CG1       12.4520   -7.1820   21.8390 C.3   217  VAL217      0.0020
    124  CG2       11.4490   -4.8500   21.9170 C.3   217  VAL217      0.0020
    125  N         15.5000   -6.7800   23.7170 N.am  218  SER218     -0.1938
    126  CA        16.8010   -7.4240   23.6500 C.3   218  SER218      0.2055
    127  C         16.7190   -8.9390   23.6650 C.2   218  SER218      0.2643
    128  O         17.1590   -9.5840   22.7090 O.2   218  SER218     -0.2714
    129  CB        17.6640   -6.9400   24.8330 C.3   218  SER218      0.2130
    130  OG        18.9800   -7.4160   24.7510 O.3   218  SER218     -0.2179
    131  N         16.1760   -9.5620   24.7030 N.am  219  TRP219     -0.1959
    132  CA        16.2070  -11.0090   24.8050 C.3   219  TRP219      0.1771
    133  C         15.1110  -11.4950   25.7240 C.2   219  TRP219      0.2620
    134  O         14.4190  -10.7630   26.4360 O.2   219  TRP219     -0.2715
    135  CB        17.6060  -11.4860   25.3170 C.3   219  TRP219      0.0590
    136  CG        18.1020  -11.0910   26.7350 C.ar  219  TRP219      0.0006
    137  CD1       18.8320   -9.9540   26.9510 C.ar  219  TRP219      0.0946
    138  CD2       17.9600  -11.8360   27.8950 C.ar  219  TRP219      0.0152
    139  NE1       19.1570   -9.9750   28.2170 N.ar  219  TRP219     -0.2442
    140  CE2       18.6580  -11.0710   28.8140 C.ar  219  TRP219      0.0810
    141  CE3       17.3690  -13.0250   28.2900 C.ar  219  TRP219      0.0012
    142  CZ2       18.7670  -11.4880   30.1320 C.ar  219  TRP219      0.0191
    143  CZ3       17.4820  -13.4450   29.5990 C.ar  219  TRP219      0.0001
    144  CH2       18.1770  -12.6770   30.5120 C.ar  219  TRP219      0.0015
    145  N         14.9480  -12.7940   25.6990 N.am  220  GLY220     -0.1940
    146  CA        13.9510  -13.4630   26.5000 C.3   220  GLY220      0.2014
    147  C         14.0440  -14.9420   26.1330 C.2   220  GLY220      0.2639
    148  O         14.8280  -15.3860   25.2670 O.2   220  GLY220     -0.2714
    149  N         13.2240  -15.7330   26.7900 N.am  221  GLU221     -0.1963
    150  CA        13.2180  -17.1380   26.5210 C.3   221  GLU221      0.1733
    151  C         11.7710  -17.4290   26.1600 C.2   221  GLU221      0.2617
    152  O         10.8300  -17.3580   26.9800 O.2   221  GLU221     -0.2715
    153  CB        13.7190  -17.8550   27.7630 C.3   221  GLU221      0.0429
    154  CG        15.1970  -17.5950   28.1930 C.3   221  GLU221      0.1163
    155  CD        15.3540  -17.8350   29.7020 C.2   221  GLU221      0.3649
    156  OE1       15.5730  -18.9720   30.1050 O.co2 221  GLU221     -0.2457
    157  OE2       15.1900  -16.8880   30.4860 O.co2 221  GLU221     -0.2457
    158  N         11.6210  -17.6530   24.8660 N.am  222  GLY222     -0.1940
    159  CA        10.3110  -17.8580   24.3040 C.3   222  GLY222      0.2014
    160  C          9.5930  -16.5140   24.1660 C.2   222  GLY222      0.2639
    161  O         10.2140  -15.4320   24.1980 O.2   222  GLY222     -0.2714
    162  N          8.2700  -16.5940   24.0370 N.am  223  CYS223     -0.1967
    163  CA         7.4080  -15.4410   23.8730 C.3   223  CYS223      0.1712
    164  C          6.1830  -15.7430   24.6810 C.2   223  CYS223      0.2296
    165  O          5.5350  -16.7710   24.4800 O.2   223  CYS223     -0.2864
    166  CB         6.9480  -15.2510   22.4420 C.3   223  CYS223      0.0983
    167  SG         8.3210  -15.1960   21.3130 S.3   223  CYS223     -0.0798
@<TRIPOS>BOND
     1    26    25    2
     2    25    24    1
     3   111   109   ar
     4    24    27    1
     5    24    23    1
     6    27    28    1
     7   109   110   ar
     8   109   108    1
     9    14    13    2
    10   106   105    2
    11    11    12    1
    12   108   107    1
    13    28    30   ar
    14    28    29   ar
    15   105   104    1
    16    13    12    1
    17    33    30   ar
    18    33    35   ar
    19     4     3    2
    20   107   104    1
    21    30    32   ar
    22   115   114    2
    23    12    15    1
    24    29    31   ar
    25    15    16    1
    26     3     2    1
    27    35    36   ar
    28   104   103    1
    29    32    31   ar
    30    32    34   ar
    31   116   113    1
    32   116   117    1
    33   114   113    1
    34   112   113    1
    35    18    16   ar
    36    18    20   ar
    37    16    17   ar
    38   103    99   am
    39    36    34   ar
    40     2     1    1
    41     2     5    1
    42   100    99    2
    43     8    10   ar
    44     8     6   ar
    45    99    98    1
    46    10     9   ar
    47    20    21   ar
    48    17    19   ar
    49     5     6    1
    50     6     7   ar
    51   102   101    1
    52   102   167    1
    53   101    98    1
    54    48    50   ar
    55    48    46   ar
    56    50    49   ar
    57     9     7   ar
    58    98    97    1
    59    46    45   ar
    60    46    44   ar
    61    45    43   ar
    62    49    47   ar
    63    21    19   ar
    64    21    22    1
    65    44    47   ar
    66    44    42   ar
    67    43    42   ar
    68    97    94   am
    69    42    41    1
    70    41    38    1
    71   167   166    1
    72   121   120    2
    73    94    93    1
    74    94    95    2
    75   122   123    1
    76   122   124    1
    77   122   119    1
    78    93    96    1
    79    93    92    1
    80   166   163    1
    81    38    39    1
    82    38    37    1
    83    87    86    2
    84   120   119    1
    85   120   125   am
    86   128   127    2
    87   118   119    1
    88    40    39    2
    89    75    73    1
    90    74    73    1
    91    92    86   am
    92    86    85    1
    93   126   127    1
    94   126   125    1
    95   126   129    1
    96   127   131   am
    97   163   162    1
    98   163   164    1
    99    73    72    1
   100   162   160   am
   101   160   161    2
   102   160   159    1
   103   159   158    1
   104   165   164    2
   105   131   132    1
   106   130   129    1
   107   132   135    1
   108   132   133    1
   109   158   151   am
   110    72    69    1
   111    85    84    1
   112    85    88    1
   113   148   147    2
   114   135   136    1
   115    88    89    1
   116    69    70    1
   117    69    68    1
   118    91    89   ar
   119    89    90   ar
   120   145   133   am
   121   145   146    1
   122   133   134    2
   123    71    70    2
   124   147   146    1
   125   147   149   am
   126   151   150    1
   127   151   152    2
   128    51    52    1
   129    68    62   am
   130   150   149    1
   131   150   153    1
   132   136   137   ar
   133   136   138   ar
   134   137   139   ar
   135    52    53    1
   136    52    55    1
   137    62    63    2
   138    62    61    1
   139    54    53    2
   140    53    60   am
   141   153   154    1
   142    60    61    1
   143   138   141   ar
   144   138   140   ar
   145   154   155    1
   146   139   140   ar
   147    61    64    1
   148   141   143   ar
   149    55    56    1
   150   140   142   ar
   151    83    81    1
   152    66    65    2
   153   143   144   ar
   154   155   156   ar
   155   155   157   ar
   156    64    65    1
   157    56    57    1
   158    65    67   am
   159   142   144   ar
   160    81    80    1
   161    82    80    1
   162    58    57   ar
   163    57    59   ar
   164    80    77    1
   165    77    76    1
   166    77    78    1
   167    78    79    2
