@<TRIPOS>MOLECULE
tmp/1touA00.pdb
 200 185 0 0 0
SMALL
GASTEIGER

@<TRIPOS>ATOM
      1  N         23.5910   14.1130    2.2040 N.3    16  PHE16      -0.1241
      2  CA        23.7820   12.6670    2.0020 C.3    16  PHE16       0.1605
      3  C         25.2240   12.2880    1.6750 C.2    16  PHE16       0.2264
      4  O         25.7410   11.2820    2.1880 O.2    16  PHE16      -0.2867
      5  CB        22.8190   12.0830    0.9570 C.3    16  PHE16       0.0534
      6  CG        22.6960   10.5680    1.0340 C.ar   16  PHE16      -0.0203
      7  CD1       22.3610    9.9400    2.2410 C.ar   16  PHE16      -0.0042
      8  CD2       22.9040    9.7740   -0.0940 C.ar   16  PHE16      -0.0042
      9  CE1       22.2420    8.5280    2.3210 C.ar   16  PHE16      -0.0003
     10  CE2       22.7770    8.3590   -0.0300 C.ar   16  PHE16      -0.0003
     11  CZ        22.4550    7.7460    1.1830 C.ar   16  PHE16      -0.0000
     12  N         27.1280   12.4980    4.8470 N.3    19  TYR19      -0.1227
     13  CA        26.7740   11.3290    5.6570 C.3    19  TYR19       0.1736
     14  C         27.5370   10.0940    5.1730 C.2    19  TYR19       0.2595
     15  O         28.1580    9.4110    5.9610 O.2    19  TYR19      -0.2718
     16  CB        25.2530   11.1070    5.6790 C.3    19  TYR19       0.0548
     17  CG        24.8400    9.7810    6.3030 C.ar   19  TYR19      -0.0200
     18  CD1       24.8100    9.6080    7.6970 C.ar   19  TYR19      -0.0009
     19  CD2       24.5120    8.6880    5.4970 C.ar   19  TYR19      -0.0009
     20  CE1       24.4510    8.3760    8.2640 C.ar   19  TYR19       0.0417
     21  CE2       24.1440    7.4470    6.0610 C.ar   19  TYR19       0.0417
     22  CZ        24.1210    7.2980    7.4270 C.ar   19  TYR19       0.1957
     23  OH        23.7670    6.0730    7.9580 O.3    19  TYR19      -0.2866
     24  N         27.4900    9.8190    3.8750 N.am   20  MET20      -0.1979
     25  CA        28.2220    8.6940    3.2960 C.3    20  MET20       0.1605
     26  C         29.7310    8.7780    3.5650 C.2    20  MET20       0.2287
     27  O         30.3620    7.7910    3.9410 O.2    20  MET20      -0.2864
     28  CB        27.9630    8.6180    1.8030 C.3    20  MET20       0.0413
     29  CG        26.5700    8.1370    1.4320 C.3    20  MET20       0.0598
     30  SD        26.4720    7.8020   -0.3370 S.3    20  MET20      -0.1393
     31  CE        26.4580    9.4690   -1.0040 C.3    20  MET20       0.0692
     32  N         30.3170    7.8320    7.2100 N.3    23  VAL23      -0.1245
     33  CA        30.1520    6.3910    7.3680 C.3    23  VAL23       0.1561
     34  C         31.4120    5.6280    6.8680 C.2    23  VAL23       0.2260
     35  O         31.7170    4.5490    7.3490 O.2    23  VAL23      -0.2867
     36  CB        28.8380    5.9230    6.6530 C.3    23  VAL23       0.0252
     37  CG1       28.7850    4.4280    6.4980 C.3    23  VAL23       0.0019
     38  CG2       27.6080    6.4240    7.4280 C.3    23  VAL23       0.0019
     39  N         32.1740    5.5650    3.3130 N.3    25  VAL25      -0.1245
     40  CA        31.8960    5.1720    1.9230 C.3    25  VAL25       0.1561
     41  C         32.9390    5.7600    0.9600 C.2    25  VAL25       0.2260
     42  O         33.2010    6.9540    0.9900 O.2    25  VAL25      -0.2867
     43  CB        30.4530    5.5970    1.5000 C.3    25  VAL25       0.0252
     44  CG1       30.1460    5.1900    0.0590 C.3    25  VAL25       0.0019
     45  CG2       29.4000    5.0100    2.4580 C.3    25  VAL25       0.0019
     46  N         31.5210    5.0070   -5.0070 N.3    29  THR29      -0.1218
     47  CA        30.1900    4.6370   -4.5420 C.3    29  THR29       0.1862
     48  C         29.3540    5.8890   -4.2300 C.2    29  THR29       0.2287
     49  O         28.2260    6.0130   -4.7180 O.2    29  THR29      -0.2866
     50  CB        30.2780    3.6650   -3.3520 C.3    29  THR29       0.1770
     51  OG1       30.9030    2.4390   -3.7840 O.3    29  THR29      -0.2211
     52  CG2       28.8830    3.2140   -2.8750 C.3    29  THR29       0.0375
     53  N         25.7450    6.5380   -5.6580 N.3    33  ALA33      -0.1245
     54  CA        24.6810    6.5410   -4.6340 C.3    33  ALA33       0.1562
     55  C         24.0100    7.9050   -4.4530 C.2    33  ALA33       0.2260
     56  O         22.7980    7.9760   -4.2260 O.2    33  ALA33      -0.2867
     57  CB        25.2130    6.0320   -3.3010 C.3    33  ALA33       0.0290
     58  N         16.1400    6.7020   -5.2000 N.3    38  PRO38      -0.2116
     59  CA        15.5210    5.4100   -4.9170 C.3    38  PRO38       0.1372
     60  C         14.0280    5.4550   -4.6510 C.2    38  PRO38       0.2244
     61  O         13.4620    6.4890   -4.2350 O.2    38  PRO38      -0.2868
     62  CB        16.2540    4.9190   -3.6520 C.3    38  PRO38       0.0268
     63  CG        16.8770    6.1390   -3.0430 C.3    38  PRO38       0.0207
     64  CD        17.0750    7.1260   -4.1360 C.3    38  PRO38       0.0892
     65  N         11.4340    3.4410   -2.1590 N.3    40  MET40      -0.1245
     66  CA        11.4230    2.5970   -0.9790 C.3    40  MET40       0.1570
     67  C         10.0400    1.9640   -0.8880 C.2    40  MET40       0.2261
     68  O          9.0280    2.6540   -1.0330 O.2    40  MET40      -0.2867
     69  CB        11.7890    3.4220    0.2450 C.3    40  MET40       0.0387
     70  CG        11.6520    2.7170    1.5870 C.3    40  MET40       0.0595
     71  SD        12.3800    3.7340    2.8760 S.3    40  MET40      -0.1393
     72  CE        11.4770    5.2480    2.6460 C.3    40  MET40       0.0692
     73  N         14.5880   -1.0840   -0.9860 N.3    53  SER53      -0.1217
     74  CA        15.0360    0.1210   -1.6490 C.3    53  SER53       0.1889
     75  C         15.4440   -0.2880   -3.0400 C.2    53  SER53       0.2288
     76  O         16.2350   -1.2330   -3.1980 O.2    53  SER53      -0.2866
     77  CB        16.2310    0.7180   -0.9060 C.3    53  SER53       0.2089
     78  OG        16.7410    1.8590   -1.5800 O.3    53  SER53      -0.2183
     79  N         21.4880    2.6390   -8.6630 N.3    57  PHE57      -0.1227
     80  CA        22.7240    2.3400   -7.9490 C.3    57  PHE57       0.1736
     81  C         22.7070    0.8900   -7.4360 C.2    57  PHE57       0.2595
     82  O         23.4650    0.0320   -7.9300 O.2    57  PHE57      -0.2718
     83  CB        22.9440    3.3610   -6.8120 C.3    57  PHE57       0.0547
     84  CG        23.8670    2.8780   -5.7330 C.ar   57  PHE57      -0.0202
     85  CD1       25.1130    2.3550   -6.0430 C.ar   57  PHE57      -0.0042
     86  CD2       23.4770    2.9320   -4.4060 C.ar   57  PHE57      -0.0042
     87  CE1       25.9700    1.8750   -5.0390 C.ar   57  PHE57      -0.0003
     88  CE2       24.3260    2.4690   -3.3930 C.ar   57  PHE57      -0.0003
     89  CZ        25.5640    1.9500   -3.7110 C.ar   57  PHE57      -0.0000
     90  N         21.8250    0.6020   -6.4790 N.am   58  LYS58      -0.1980
     91  CA        21.7690   -0.7380   -5.8850 C.3    58  LYS58       0.1596
     92  C         20.3730   -1.0270   -5.3420 C.2    58  LYS58       0.2287
     93  O         19.7340   -0.1360   -4.8190 O.2    58  LYS58      -0.2864
     94  CB        22.8020   -0.8470   -4.7550 C.3    58  LYS58       0.0298
     95  CG        23.3360   -2.2500   -4.5410 C.3    58  LYS58       0.0038
     96  CD        24.7330   -2.2390   -3.9470 C.3    58  LYS58       0.0206
     97  CE        25.1290   -3.6420   -3.4680 C.3    58  LYS58       0.1093
     98  NZ        26.2780   -3.6330   -2.4830 N.3    58  LYS58      -0.1314
     99  N         18.3620   -2.9350   -2.3280 N.3    60  THR60      -0.1218
    100  CA        18.6010   -3.6350   -1.0740 C.3    60  THR60       0.1862
    101  C         17.2660   -4.0060   -0.4630 C.2    60  THR60       0.2287
    102  O         16.2250   -3.4390   -0.8320 O.2    60  THR60      -0.2866
    103  CB        19.3690   -2.7590   -0.0620 C.3    60  THR60       0.1770
    104  OG1       18.5930   -1.5910    0.2170 O.3    60  THR60      -0.2211
    105  CG2       20.6930   -2.2380   -0.6330 C.3    60  THR60       0.0375
    106  N         24.7120   -3.5850    3.9560 N.3    74  THR74      -0.1203
    107  CA        24.2310   -2.3000    3.4520 C.3    74  THR74       0.1994
    108  C         24.5200   -2.1620    1.9610 C.2    74  THR74       0.2618
    109  O         25.2370   -2.9840    1.3790 O.2    74  THR74      -0.2717
    110  CB        24.8020   -1.1000    4.2530 C.3    74  THR74       0.1784
    111  OG1       26.2340   -1.0950    4.1850 O.3    74  THR74      -0.2211
    112  CG2       24.5040   -1.2530    5.7570 C.3    74  THR74       0.0376
    113  N         23.9550   -1.1210    1.3530 N.am   75  ALA75      -0.1965
    114  CA        24.2290   -0.8220   -0.0550 C.3    75  ALA75       0.1728
    115  C         25.7320   -0.5970   -0.3310 C.2    75  ALA75       0.2616
    116  O         26.2140   -0.9360   -1.4080 O.2    75  ALA75      -0.2715
    117  CB        23.3980    0.3760   -0.5260 C.3    75  ALA75       0.0334
    118  N         26.4570   -0.0360    0.6380 N.am   76  ASP76      -0.1971
    119  CA        27.9170    0.1260    0.5260 C.3    76  ASP76       0.1709
    120  C         28.7320   -1.0810    1.0130 C.2    76  ASP76       0.2293
    121  O         29.9540   -0.9810    1.1760 O.2    76  ASP76      -0.2864
    122  CB        28.3990    1.3970    1.2320 C.3    76  ASP76       0.1436
    123  CG        28.0820    1.4120    2.7070 C.2    76  ASP76       0.3671
    124  OD1       26.9180    1.1270    3.0650 O.co2  76  ASP76      -0.2456
    125  OD2       28.9120    1.7450    3.5870 O.co2  76  ASP76      -0.2456
    126  N         28.7520   -2.7360    3.9550 N.3    78  ARG78      -0.1245
    127  CA        29.1170   -2.8890    5.3640 C.3    78  ARG78       0.1563
    128  C         28.3240   -4.0720    5.9050 C.2    78  ARG78       0.2260
    129  O         27.1770   -4.2840    5.4990 O.2    78  ARG78      -0.2867
    130  CB        28.7820   -1.6340    6.1810 C.3    78  ARG78       0.0307
    131  CG        29.7920   -0.4960    6.1280 C.3    78  ARG78       0.0489
    132  CD        29.2730    0.8040    6.7610 C.3    78  ARG78       0.2205
    133  NE        28.0870    1.2870    6.0370 N.pl3  78  ARG78      -0.0865
    134  CZ        26.9230    1.6410    6.5720 C.cat  78  ARG78       0.5346
    135  NH1       26.7300    1.6440    7.8930 N.pl3  78  ARG78       0.1354
    136  NH2       25.9440    2.0370    5.7650 N.pl3  78  ARG78       0.1354
    137  N         22.4730    0.7900   13.2290 N.3    95  GLN95      -0.1245
    138  CA        23.4510   -0.1180   12.6550 C.3    95  GLN95       0.1566
    139  C         24.7550    0.0290   13.4240 C.2    95  GLN95       0.2260
    140  O         25.2460    1.1460   13.6230 O.2    95  GLN95      -0.2867
    141  CB        23.7000    0.2080   11.1840 C.3    95  GLN95       0.0367
    142  CG        22.4470    0.1980   10.2880 C.3    95  GLN95       0.0905
    143  CD        22.7700    0.5910    8.8640 C.2    95  GLN95       0.2608
    144  OE1       23.6490    1.4140    8.6360 O.2    95  GLN95      -0.2717
    145  NE2       22.0750   -0.0010    7.9080 N.am   95  GLN95      -0.0878
    146  N         19.2270    5.6710   11.8860 N.3   104  ILE104     -0.1245
    147  CA        18.3530    6.0190   10.7670 C.3   104  ILE104      0.1561
    148  C         16.9140    6.0120   11.2530 C.2   104  ILE104      0.2260
    149  O         16.3800    4.9580   11.6160 O.2   104  ILE104     -0.2867
    150  CB        18.5330    5.0140    9.6210 C.3   104  ILE104      0.0252
    151  CG1       19.9850    5.0180    9.1320 C.3   104  ILE104      0.0019
    152  CG2       17.5540    5.3190    8.4740 C.3   104  ILE104      0.0019
    153  CD1       20.4200    3.7620    8.4630 C.3   104  ILE104      0.0001
    154  N         12.9970    6.7820   10.4440 N.3   106  ARG106     -0.1245
    155  CA        12.0130    6.9550    9.4030 C.3   106  ARG106      0.1563
    156  C         10.7270    7.3680   10.1030 C.2   106  ARG106      0.2260
    157  O         10.2250    6.6610   11.0000 O.2   106  ARG106     -0.2867
    158  CB        11.8420    5.6510    8.6090 C.3   106  ARG106      0.0307
    159  CG        13.1530    5.1440    7.9310 C.3   106  ARG106      0.0489
    160  CD        13.1380    3.6670    7.5060 C.3   106  ARG106      0.2205
    161  NE        14.3750    3.2840    6.7990 N.pl3 106  ARG106     -0.0865
    162  CZ        15.3480    2.5270    7.3040 C.cat 106  ARG106      0.5346
    163  NH1       15.2620    2.0340    8.5210 N.pl3 106  ARG106      0.1354
    164  NH2       16.4210    2.2460    6.5750 N.pl3 106  ARG106      0.1354
    165  N         13.3030   10.5710    6.2120 N.3   115  VAL115     -0.1245
    166  CA        14.3990    9.7490    6.7000 C.3   115  VAL115      0.1561
    167  C         15.5460   10.6120    7.2110 C.2   115  VAL115      0.2260
    168  O         16.1440   11.4030    6.4570 O.2   115  VAL115     -0.2867
    169  CB        14.8910    8.7610    5.6170 C.3   115  VAL115      0.0252
    170  CG1       15.9570    7.8070    6.1790 C.3   115  VAL115      0.0019
    171  CG2       13.7270    7.9700    5.0560 C.3   115  VAL115      0.0019
    172  N         19.2870   10.4680    8.7470 N.3   117  CYS117     -0.1235
    173  CA        20.4440    9.5790    8.9060 C.3   117  CYS117      0.1677
    174  C         21.5660   10.3150    9.6080 C.2   117  CYS117      0.2270
    175  O         22.0250   11.3510    9.1310 O.2   117  CYS117     -0.2867
    176  CB        20.9340    9.0540    7.5510 C.3   117  CYS117      0.0956
    177  SG        19.6330    8.5480    6.3920 S.3   117  CYS117     -0.0801
    178  N         16.3020   13.0180    4.2530 N.3   126  ARG126     -0.1245
    179  CA        15.8090   12.5490    2.9590 C.3   126  ARG126      0.1563
    180  C         14.3030   12.4220    3.0050 C.2   126  ARG126      0.2260
    181  O         13.7560   11.7780    3.8990 O.2   126  ARG126     -0.2867
    182  CB        16.4910   11.2240    2.5720 C.3   126  ARG126      0.0307
    183  CG        17.9230   11.4490    2.0840 C.3   126  ARG126      0.0489
    184  CD        18.8340   10.2600    2.1100 C.3   126  ARG126      0.2205
    185  NE        18.6260    9.2910    1.0160 N.pl3 126  ARG126     -0.0865
    186  CZ        19.0660    9.3950   -0.2390 C.cat 126  ARG126      0.5346
    187  NH1       19.7170   10.4750   -0.6700 N.pl3 126  ARG126      0.1354
    188  NH2       18.8430    8.3910   -1.0810 N.pl3 126  ARG126      0.1354
    189  N         10.6970   11.4250    1.1130 N.3   128  TYR128     -0.1241
    190  CA        10.0320   10.6050    0.1190 C.3   128  TYR128      0.1605
    191  C          8.5470   10.9470    0.1100 C.2   128  TYR128      0.2264
    192  O          7.9580   11.1920    1.1670 O.2   128  TYR128     -0.2867
    193  CB        10.1690    9.1160    0.4680 C.3   128  TYR128      0.0534
    194  CG        11.5760    8.5310    0.4030 C.ar  128  TYR128     -0.0201
    195  CD1       12.5430    8.8510    1.3580 C.ar  128  TYR128     -0.0009
    196  CD2       11.9230    7.6220   -0.6060 C.ar  128  TYR128     -0.0009
    197  CE1       13.8380    8.2880    1.2970 C.ar  128  TYR128      0.0417
    198  CE2       13.2160    7.0650   -0.6870 C.ar  128  TYR128      0.0417
    199  CZ        14.1580    7.3960    0.2660 C.ar  128  TYR128      0.1957
    200  OH        15.4190    6.8360    0.1750 O.3   128  TYR128     -0.2866
@<TRIPOS>BOND
     1    79    80    1
     2    80    81    1
     3    80    83    1
     4    82    81    2
     5    81    90   am
     6    83    84    1
     7    90    91    1
     8    85    84   ar
     9    85    87   ar
    10    91    92    1
    11    91    94    1
    12    84    86   ar
    13    53    54    1
    14    92    93    2
    15    58    59    1
    16    58    64    1
    17    87    89   ar
    18    46    47    1
    19    59    60    1
    20    59    62    1
    21    94    95    1
    22    49    48    2
    23    60    61    2
    24    54    55    1
    25    54    57    1
    26    47    48    1
    27    47    50    1
    28    95    96    1
    29    55    56    2
    30    86    88   ar
    31    64    63    1
    32    96    97    1
    33    51    50    1
    34    89    88   ar
    35    62    63    1
    36    97    98    1
    37    50    52    1
    38    76    75    2
    39    75    74    1
    40    99   100    1
    41    65    66    1
    42    74    73    1
    43    74    77    1
    44    78    77    1
    45   116   115    2
    46   188   186    1
    47   100   101    1
    48   100   103    1
    49    68    67    2
    50    31    30    1
    51    66    67    1
    52    66    69    1
    53   102   101    2
    54   198   196   ar
    55   198   199   ar
    56   187   186    1
    57   105   103    1
    58   196   194   ar
    59   117   114    1
    60    30    29    1
    61   115   114    1
    62   115   118   am
    63   186   185    2
    64     8    10   ar
    65     8     6   ar
    66   103   104    1
    67   114   113    1
    68    10    11   ar
    69    44    43    1
    70   191   190    1
    71   191   192    2
    72   190   193    1
    73   190   189    1
    74   200   199    1
    75    69    70    1
    76   199   197   ar
    77   194   193    1
    78   194   195   ar
    79   119   118    1
    80   119   120    1
    81   119   122    1
    82     5     6    1
    83     5     2    1
    84    41    42    2
    85    41    40    1
    86   120   121    2
    87   185   184    1
    88     6     7   ar
    89    11     9   ar
    90   122   123    1
    91   197   195   ar
    92   113   108   am
    93   109   108    2
    94    29    28    1
    95    43    40    1
    96    43    45    1
    97    70    71    1
    98     3     2    1
    99     3     4    2
   100    28    25    1
   101    40    39    1
   102   108   107    1
   103     2     1    1
   104   183   184    1
   105   183   182    1
   106     7     9   ar
   107   182   179    1
   108    72    71    1
   109   123   124   ar
   110   123   125   ar
   111   179   180    1
   112   179   178    1
   113   180   181    2
   114    25    26    1
   115    25    24    1
   116   107   106    1
   117   107   110    1
   118    26    27    2
   119    24    14   am
   120   126   127    1
   121   111   110    1
   122   110   112    1
   123    12    13    1
   124   171   169    1
   125    14    13    1
   126    14    15    2
   127   127   128    1
   128   127   130    1
   129    19    21   ar
   130    19    17   ar
   131   129   128    2
   132   169   170    1
   133   169   166    1
   134    13    16    1
   135    16    17    1
   136   136   134    1
   137   133   134    2
   138   133   132    1
   139    21    22   ar
   140   131   130    1
   141   131   132    1
   142   165   166    1
   143    17    18   ar
   144   177   176    1
   145   168   167    2
   146    37    36    1
   147   134   135    1
   148   164   162    1
   149    36    33    1
   150    36    38    1
   151   166   167    1
   152   161   162    2
   153   161   160    1
   154    34    35    2
   155    34    33    1
   156    32    33    1
   157   162   163    1
   158    22    23    1
   159    22    20   ar
   160   160   159    1
   161   176   173    1
   162    18    20   ar
   163   145   143   am
   164   159   158    1
   165   153   151    1
   166   152   150    1
   167   158   155    1
   168   144   143    2
   169   172   173    1
   170   143   142    1
   171   173   174    1
   172   175   174    2
   173   151   150    1
   174   155   156    1
   175   155   154    1
   176   150   147    1
   177   156   157    2
   178   142   141    1
   179   147   148    1
   180   147   146    1
   181   141   138    1
   182   148   149    2
   183   138   137    1
   184   138   139    1
   185   139   140    2
