@<TRIPOS>MOLECULE
tmp/1towA00.pdb
 211 194 0 0 0
SMALL
GASTEIGER

@<TRIPOS>ATOM
      1  N         23.5610   14.2770    2.3750 N.3    16  PHE16      -0.1241
      2  CA        23.7650   12.8380    2.2020 C.3    16  PHE16       0.1605
      3  C         25.1950   12.4570    1.8290 C.2    16  PHE16       0.2264
      4  O         25.6770   11.4220    2.2780 O.2    16  PHE16      -0.2867
      5  CB        22.7730   12.1980    1.2330 C.3    16  PHE16       0.0534
      6  CG        22.6750   10.7060    1.3970 C.ar   16  PHE16      -0.0203
      7  CD1       22.4360   10.1490    2.6670 C.ar   16  PHE16      -0.0042
      8  CD2       22.8290    9.8570    0.3080 C.ar   16  PHE16      -0.0042
      9  CE1       22.3440    8.7630    2.8370 C.ar   16  PHE16      -0.0003
     10  CE2       22.7290    8.4450    0.4710 C.ar   16  PHE16      -0.0003
     11  CZ        22.4870    7.9120    1.7370 C.ar   16  PHE16      -0.0000
     12  N         27.1750   12.5980    4.9920 N.3    19  TYR19      -0.1227
     13  CA        26.8190   11.4110    5.7800 C.3    19  TYR19       0.1736
     14  C         27.5530   10.1710    5.2930 C.2    19  TYR19       0.2595
     15  O         28.1910    9.4900    6.0760 O.2    19  TYR19      -0.2718
     16  CB        25.2980   11.1660    5.8140 C.3    19  TYR19       0.0548
     17  CG        24.9240    9.8260    6.4390 C.ar   19  TYR19      -0.0200
     18  CD1       24.8500    9.6670    7.8310 C.ar   19  TYR19      -0.0009
     19  CD2       24.6730    8.7060    5.6340 C.ar   19  TYR19      -0.0009
     20  CE1       24.5200    8.4390    8.4020 C.ar   19  TYR19       0.0417
     21  CE2       24.3380    7.4830    6.1900 C.ar   19  TYR19       0.0417
     22  CZ        24.2730    7.3470    7.5780 C.ar   19  TYR19       0.1957
     23  OH        23.9490    6.1150    8.1270 O.3    19  TYR19      -0.2866
     24  N         27.4610    9.8770    4.0020 N.am   20  MET20      -0.1979
     25  CA        28.1570    8.7130    3.4470 C.3    20  MET20       0.1605
     26  C         29.6590    8.7940    3.7220 C.2    20  MET20       0.2287
     27  O         30.2870    7.7980    4.0990 O.2    20  MET20      -0.2864
     28  CB        27.8950    8.5870    1.9440 C.3    20  MET20       0.0413
     29  CG        26.4880    8.1470    1.5870 C.3    20  MET20       0.0598
     30  SD        26.2830    7.7930   -0.1750 S.3    20  MET20      -0.1393
     31  CE        26.2640    9.4470   -0.8640 C.3    20  MET20       0.0692
     32  N         30.3680    7.9220    7.2370 N.3    23  VAL23      -0.1245
     33  CA        30.2010    6.4810    7.4270 C.3    23  VAL23       0.1561
     34  C         31.3800    5.6850    6.8520 C.2    23  VAL23       0.2260
     35  O         31.6450    4.5530    7.2680 O.2    23  VAL23      -0.2867
     36  CB        28.8830    5.9870    6.7980 C.3    23  VAL23       0.0252
     37  CG1       28.8810    4.4960    6.6960 C.3    23  VAL23       0.0019
     38  CG2       27.7000    6.4600    7.6250 C.3    23  VAL23       0.0019
     39  N         32.0550    5.6740    3.3160 N.3    25  VAL25      -0.1245
     40  CA        31.7840    5.3530    1.9190 C.3    25  VAL25       0.1561
     41  C         32.8340    5.9870    1.0150 C.2    25  VAL25       0.2260
     42  O         33.0900    7.1970    1.0820 O.2    25  VAL25      -0.2867
     43  CB        30.3550    5.7740    1.4900 C.3    25  VAL25       0.0252
     44  CG1       30.0890    5.3850    0.0550 C.3    25  VAL25       0.0019
     45  CG2       29.3230    5.1350    2.4080 C.3    25  VAL25       0.0019
     46  N         31.5410    5.1560   -4.8480 N.3    29  THR29      -0.1218
     47  CA        30.2100    4.7810   -4.4020 C.3    29  THR29       0.1862
     48  C         29.3300    6.0040   -4.1050 C.2    29  THR29       0.2287
     49  O         28.1830    6.0520   -4.5490 O.2    29  THR29      -0.2866
     50  CB        30.3180    3.8390   -3.2020 C.3    29  THR29       0.1770
     51  OG1       30.9520    2.6310   -3.6340 O.3    29  THR29      -0.2211
     52  CG2       28.9310    3.3750   -2.7150 C.3    29  THR29       0.0375
     53  N         25.5670    6.7190   -5.5890 N.3    33  ALA33      -0.1245
     54  CA        24.5650    6.7290   -4.5250 C.3    33  ALA33       0.1562
     55  C         23.9370    8.1040   -4.3320 C.2    33  ALA33       0.2260
     56  O         22.7470    8.2030   -4.0350 O.2    33  ALA33      -0.2867
     57  CB        25.1720    6.2500   -3.2200 C.3    33  ALA33       0.0290
     58  N         21.3050    9.0680   -6.8000 N.3    36  ALA36      -0.1245
     59  CA        20.1710    8.1460   -6.7410 C.3    36  ALA36       0.1562
     60  C         18.9010    8.7900   -6.1910 C.2    36  ALA36       0.2260
     61  O         18.9280    9.5290   -5.1980 O.2    36  ALA36      -0.2867
     62  CB        20.5350    6.8890   -5.9420 C.3    36  ALA36       0.0290
     63  N         15.9280    6.8500   -5.0820 N.3    38  PRO38      -0.2116
     64  CA        15.3790    5.5100   -4.8740 C.3    38  PRO38       0.1372
     65  C         13.8750    5.4700   -4.6560 C.2    38  PRO38       0.2244
     66  O         13.2690    6.4630   -4.2200 O.2    38  PRO38      -0.2868
     67  CB        16.0850    5.0460   -3.5940 C.3    38  PRO38       0.0268
     68  CG        16.4240    6.2870   -2.8890 C.3    38  PRO38       0.0207
     69  CD        16.7730    7.2710   -3.9470 C.3    38  PRO38       0.0892
     70  N         11.3330    3.5230   -2.2330 N.3    40  MET40      -0.1245
     71  CA        11.3190    2.7130   -1.0220 C.3    40  MET40       0.1570
     72  C          9.9540    2.0520   -0.8530 C.2    40  MET40       0.2261
     73  O          8.9390    2.7320   -0.8100 O.2    40  MET40      -0.2867
     74  CB        11.6900    3.5570    0.2010 C.3    40  MET40       0.0387
     75  CG        11.5320    2.8190    1.5270 C.3    40  MET40       0.0595
     76  SD        12.1520    3.7060    2.9540 S.3    40  MET40      -0.1393
     77  CE        11.1780    5.2050    2.8830 C.3    40  MET40       0.0692
     78  N         14.6240   -0.9550   -1.0810 N.3    53  SER53      -0.1217
     79  CA        15.0290    0.2770   -1.7430 C.3    53  SER53       0.1889
     80  C         15.5080   -0.0940   -3.1450 C.2    53  SER53       0.2288
     81  O         16.4210   -0.9130   -3.3040 O.2    53  SER53      -0.2866
     82  CB        16.1250    1.0060   -0.9570 C.3    53  SER53       0.2089
     83  OG        16.5610    2.1820   -1.6460 O.3    53  SER53      -0.2183
     84  N         16.8430    1.4010   -6.8630 N.3    55  SER55      -0.1217
     85  CA        17.3760    2.4960   -7.6820 C.3    55  SER55       0.1889
     86  C         18.3990    1.9320   -8.6450 C.2    55  SER55       0.2288
     87  O         18.8490    0.7940   -8.4690 O.2    55  SER55      -0.2866
     88  CB        18.0210    3.5860   -6.8110 C.3    55  SER55       0.2089
     89  OG        19.2190    3.1290   -6.2010 O.3    55  SER55      -0.2183
     90  N         21.3360    2.7440   -8.7780 N.3    57  PHE57      -0.1227
     91  CA        22.5340    2.5370   -7.9740 C.3    57  PHE57       0.1736
     92  C         22.6170    1.1030   -7.3970 C.2    57  PHE57       0.2595
     93  O         23.5930    0.3790   -7.6330 O.2    57  PHE57      -0.2718
     94  CB        22.6230    3.5670   -6.8340 C.3    57  PHE57       0.0547
     95  CG        23.6040    3.1800   -5.7590 C.ar   57  PHE57      -0.0202
     96  CD1       24.9150    2.8320   -6.0920 C.ar   57  PHE57      -0.0042
     97  CD2       23.2110    3.1180   -4.4250 C.ar   57  PHE57      -0.0042
     98  CE1       25.8290    2.4360   -5.1000 C.ar   57  PHE57      -0.0003
     99  CE2       24.1150    2.7430   -3.4250 C.ar   57  PHE57      -0.0003
    100  CZ        25.4250    2.4000   -3.7630 C.ar   57  PHE57      -0.0000
    101  N         21.6040    0.7140   -6.6280 N.am   58  LYS58      -0.1980
    102  CA        21.5860   -0.5950   -5.9780 C.3    58  LYS58       0.1596
    103  C         20.1590   -0.9110   -5.5550 C.2    58  LYS58       0.2287
    104  O         19.3990   -0.0050   -5.2140 O.2    58  LYS58      -0.2864
    105  CB        22.5300   -0.5990   -4.7550 C.3    58  LYS58       0.0298
    106  CG        22.9640   -1.9930   -4.2950 C.3    58  LYS58       0.0038
    107  CD        24.1870   -1.9650   -3.3770 C.3    58  LYS58       0.0206
    108  CE        24.5360   -3.3760   -2.8630 C.3    58  LYS58       0.1093
    109  NZ        25.4730   -3.4420   -1.6550 N.3    58  LYS58      -0.1314
    110  N         18.3480   -2.8140   -2.5160 N.3    60  THR60      -0.1218
    111  CA        18.5520   -3.4470   -1.2010 C.3    60  THR60       0.1862
    112  C         17.2320   -3.8250   -0.5750 C.2    60  THR60       0.2287
    113  O         16.1870   -3.2740   -0.9350 O.2    60  THR60      -0.2866
    114  CB        19.3050   -2.5470   -0.1950 C.3    60  THR60       0.1770
    115  OG1       18.5550   -1.3480    0.0300 O.3    60  THR60      -0.2211
    116  CG2       20.6730   -2.0940   -0.7290 C.3    60  THR60       0.0375
    117  N         24.7050   -3.4270    3.9310 N.3    74  THR74      -0.1203
    118  CA        24.1900   -2.1120    3.5440 C.3    74  THR74       0.1994
    119  C         24.4400   -1.8690    2.0590 C.2    74  THR74       0.2618
    120  O         25.1760   -2.6160    1.4360 O.2    74  THR74      -0.2717
    121  CB        24.8160   -0.9760    4.3970 C.3    74  THR74       0.1784
    122  OG1       26.2450   -0.9610    4.2380 O.3    74  THR74      -0.2211
    123  CG2       24.6110   -1.2080    5.9000 C.3    74  THR74       0.0376
    124  N         23.8290   -0.8240    1.5050 N.am   75  ALA75      -0.1965
    125  CA        24.0850   -0.4170    0.1190 C.3    75  ALA75       0.1728
    126  C         25.5780   -0.2380   -0.2030 C.2    75  ALA75       0.2616
    127  O         25.9920   -0.4840   -1.3290 O.2    75  ALA75      -0.2715
    128  CB        23.3310    0.8500   -0.2060 C.3    75  ALA75       0.0334
    129  N         26.3630    0.2010    0.7830 N.am   76  ASP76      -0.1971
    130  CA        27.8070    0.4170    0.6260 C.3    76  ASP76       0.1709
    131  C         28.6620   -0.7640    1.1040 C.2    76  ASP76       0.2293
    132  O         29.8840   -0.6290    1.2860 O.2    76  ASP76      -0.2864
    133  CB        28.2500    1.7150    1.3190 C.3    76  ASP76       0.1436
    134  CG        27.9710    1.7230    2.8220 C.2    76  ASP76       0.3671
    135  OD1       26.8140    1.4530    3.2450 O.co2  76  ASP76      -0.2456
    136  OD2       28.8490    2.0300    3.6600 O.co2  76  ASP76      -0.2456
    137  N         28.7450   -2.5700    3.9060 N.3    78  ARG78      -0.1245
    138  CA        29.1390   -2.7700    5.3000 C.3    78  ARG78       0.1563
    139  C         28.3650   -3.9760    5.8340 C.2    78  ARG78       0.2260
    140  O         27.1900   -4.1650    5.5100 O.2    78  ARG78      -0.2867
    141  CB        28.8130   -1.5460    6.1580 C.3    78  ARG78       0.0307
    142  CG        29.7940   -0.4030    6.1210 C.3    78  ARG78       0.0489
    143  CD        29.2610    0.8550    6.8090 C.3    78  ARG78       0.2205
    144  NE        28.1010    1.3950    6.0890 N.pl3  78  ARG78      -0.0865
    145  CZ        26.9340    1.7660    6.6210 C.cat  78  ARG78       0.5346
    146  NH1       26.7070    1.7080    7.9310 N.pl3  78  ARG78       0.1354
    147  NH2       25.9870    2.2270    5.8130 N.pl3  78  ARG78       0.1354
    148  N         22.5730    0.7930   13.2610 N.3    95  GLN95      -0.1245
    149  CA        23.5260   -0.1290   12.6710 C.3    95  GLN95       0.1566
    150  C         24.8160   -0.0210   13.4390 C.2    95  GLN95       0.2260
    151  O         25.3120    1.0800   13.6620 O.2    95  GLN95      -0.2867
    152  CB        23.7600    0.1960   11.1860 C.3    95  GLN95       0.0367
    153  CG        22.5100    0.0460   10.3030 C.3    95  GLN95       0.0905
    154  CD        22.7060    0.6290    8.9130 C.2    95  GLN95       0.2608
    155  OE1       23.5040    1.5350    8.7360 O.2    95  GLN95      -0.2717
    156  NE2       21.9820    0.1060    7.9320 N.am   95  GLN95      -0.0878
    157  N         19.3530    5.5650   11.7100 N.3   104  ILE104     -0.1245
    158  CA        18.3980    6.0040   10.6950 C.3   104  ILE104      0.1561
    159  C         16.9970    6.0430   11.3130 C.2   104  ILE104      0.2260
    160  O         16.4790    5.0210   11.7680 O.2   104  ILE104     -0.2867
    161  CB        18.4420    5.0670    9.4720 C.3   104  ILE104      0.0252
    162  CG1       19.8720    4.9700    8.9250 C.3   104  ILE104      0.0019
    163  CG2       17.4490    5.5110    8.3920 C.3   104  ILE104      0.0019
    164  CD1       20.0450    3.9780    7.7720 C.3   104  ILE104      0.0001
    165  N         13.0380    6.8470   10.6370 N.3   106  ARG106     -0.1245
    166  CA        12.0270    7.0420    9.6180 C.3   106  ARG106      0.1563
    167  C         10.7320    7.4300   10.3210 C.2   106  ARG106      0.2260
    168  O         10.2900    6.7450   11.2580 O.2   106  ARG106     -0.2867
    169  CB        11.8760    5.7810    8.7610 C.3   106  ARG106      0.0307
    170  CG        13.1840    5.3050    8.0600 C.3   106  ARG106      0.0489
    171  CD        13.0420    3.9640    7.3350 C.3   106  ARG106      0.2205
    172  NE        14.2420    3.5300    6.6020 N.pl3 106  ARG106     -0.0865
    173  CZ        15.2330    2.8170    7.1260 C.cat 106  ARG106      0.5346
    174  NH1       15.2000    2.4590    8.3980 N.pl3 106  ARG106      0.1354
    175  NH2       16.2760    2.4550    6.3790 N.pl3 106  ARG106      0.1354
    176  N         13.2940   10.6900    6.5050 N.3   115  VAL115     -0.1245
    177  CA        14.3950    9.8140    6.8880 C.3   115  VAL115      0.1561
    178  C         15.5870   10.6370    7.3660 C.2   115  VAL115      0.2260
    179  O         16.1780   11.4120    6.6020 O.2   115  VAL115     -0.2867
    180  CB        14.8030    8.8710    5.7290 C.3   115  VAL115      0.0252
    181  CG1       15.8860    7.8730    6.1840 C.3   115  VAL115      0.0019
    182  CG2       13.5890    8.1230    5.1780 C.3   115  VAL115      0.0019
    183  N         19.3540   10.5150    8.8420 N.3   117  CYS117     -0.1235
    184  CA        20.5330    9.6560    8.9800 C.3   117  CYS117      0.1677
    185  C         21.6240   10.3840    9.7510 C.2   117  CYS117      0.2270
    186  O         22.0460   11.4680    9.3450 O.2   117  CYS117     -0.2867
    187  CB        21.0610    9.2410    7.5970 C.3   117  CYS117      0.0956
    188  SG        19.8550    8.4150    6.5250 S.3   117  CYS117     -0.0801
    189  N         16.3380   13.2520    4.4580 N.3   126  ARG126     -0.1245
    190  CA        15.8190   12.8550    3.1500 C.3   126  ARG126      0.1563
    191  C         14.3130   12.7060    3.2340 C.2   126  ARG126      0.2260
    192  O         13.7950   12.1490    4.2030 O.2   126  ARG126     -0.2867
    193  CB        16.4760   11.5560    2.6800 C.3   126  ARG126      0.0307
    194  CG        17.9240   11.7580    2.2530 C.3   126  ARG126      0.0489
    195  CD        18.8350   10.5640    2.4400 C.3   126  ARG126      0.2205
    196  NE        18.6560    9.5010    1.4470 N.pl3 126  ARG126     -0.0865
    197  CZ        19.0750    9.5360    0.1830 C.cat 126  ARG126      0.5346
    198  NH1       19.6610   10.6190   -0.3300 N.pl3 126  ARG126      0.1354
    199  NH2       18.8850    8.4780   -0.5890 N.pl3 126  ARG126      0.1354
    200  N         10.7330   11.4430    1.4020 N.3   128  TYR128     -0.1241
    201  CA        10.0270   10.6620    0.4110 C.3   128  TYR128      0.1605
    202  C          8.5440   11.0380    0.4150 C.2   128  TYR128      0.2264
    203  O          7.9770   11.3840    1.4670 O.2   128  TYR128     -0.2867
    204  CB        10.1510    9.1680    0.7200 C.3   128  TYR128      0.0534
    205  CG        11.5480    8.5500    0.5960 C.ar  128  TYR128     -0.0201
    206  CD1       12.5340    8.7870    1.5510 C.ar  128  TYR128     -0.0009
    207  CD2       11.8470    7.6720   -0.4490 C.ar  128  TYR128     -0.0009
    208  CE1       13.8020    8.1920    1.4520 C.ar  128  TYR128      0.0417
    209  CE2       13.1110    7.0670   -0.5590 C.ar  128  TYR128      0.0417
    210  CZ        14.0810    7.3350    0.3940 C.ar  128  TYR128      0.1957
    211  OH        15.3290    6.7340    0.2820 O.3   128  TYR128     -0.2866
@<TRIPOS>BOND
     1    90    91    1
     2    86    87    2
     3    86    85    1
     4    91    92    1
     5    91    94    1
     6    85    84    1
     7    85    88    1
     8    93    92    2
     9    92   101   am
    10    94    95    1
    11    88    89    1
    12    58    59    1
    13    59    60    1
    14    59    62    1
    15   101   102    1
    16    60    61    2
    17    96    95   ar
    18    96    98   ar
    19   102   103    1
    20   102   105    1
    21    95    97   ar
    22    53    54    1
    23   103   104    2
    24    98   100   ar
    25    63    64    1
    26    63    69    1
    27    64    65    1
    28    64    67    1
    29    46    47    1
    30   105   106    1
    31    65    66    2
    32    49    48    2
    33    54    55    1
    34    54    57    1
    35    97    99   ar
    36    47    48    1
    37    47    50    1
    38    55    56    2
    39   106   107    1
    40    69    68    1
    41   100    99   ar
    42    51    50    1
    43    67    68    1
    44   107   108    1
    45    81    80    2
    46    50    52    1
    47    80    79    1
    48   108   109    1
    49   110   111    1
    50    70    71    1
    51    79    78    1
    52    79    82    1
    53    83    82    1
    54   127   126    2
    55   111   112    1
    56   111   114    1
    57    71    72    1
    58    71    74    1
    59   113   112    2
    60    31    30    1
    61    72    73    2
    62   116   114    1
    63   199   197    1
    64   209   207   ar
    65   209   210   ar
    66   207   205   ar
    67   198   197    1
    68   128   125    1
    69   126   125    1
    70   126   129   am
    71   114   115    1
    72    30    29    1
    73    44    43    1
    74   125   124    1
    75   197   196    2
    76    74    75    1
    77   211   210    1
    78     8    10   ar
    79     8     6   ar
    80   210   208   ar
    81   201   202    1
    82   201   204    1
    83   201   200    1
    84   202   203    2
    85    10    11   ar
    86   205   204    1
    87   205   206   ar
    88   130   129    1
    89   130   131    1
    90   130   133    1
    91    41    42    2
    92    41    40    1
    93   131   132    2
    94     5     6    1
    95     5     2    1
    96   133   134    1
    97     6     7   ar
    98   120   119    2
    99   196   195    1
   100   208   206   ar
   101    43    40    1
   102    43    45    1
   103   124   119   am
   104    75    76    1
   105    29    28    1
   106    11     9   ar
   107     3     2    1
   108     3     4    2
   109    40    39    1
   110    28    25    1
   111   119   118    1
   112     2     1    1
   113   194   195    1
   114   194   193    1
   115     7     9   ar
   116   193   190    1
   117   134   135   ar
   118   134   136   ar
   119    77    76    1
   120   190   191    1
   121   190   189    1
   122   191   192    2
   123    25    26    1
   124    25    24    1
   125   118   117    1
   126   118   121    1
   127    26    27    2
   128   137   138    1
   129    24    14   am
   130   122   121    1
   131   121   123    1
   132    12    13    1
   133   182   180    1
   134    14    13    1
   135    14    15    2
   136   138   139    1
   137   138   141    1
   138   140   139    2
   139    19    21   ar
   140    19    17   ar
   141   180   181    1
   142   180   177    1
   143    13    16    1
   144   147   145    1
   145    16    17    1
   146   144   145    2
   147   144   143    1
   148   142   141    1
   149   142   143    1
   150    21    22   ar
   151   175   173    1
   152    17    18   ar
   153   176   177    1
   154   188   187    1
   155   172   173    2
   156   172   171    1
   157   179   178    2
   158   145   146    1
   159    37    36    1
   160    36    33    1
   161    36    38    1
   162    34    35    2
   163    34    33    1
   164   177   178    1
   165   173   174    1
   166    32    33    1
   167   171   170    1
   168    22    23    1
   169    22    20   ar
   170   187   184    1
   171   164   162    1
   172    18    20   ar
   173   156   154   am
   174   170   169    1
   175   163   161    1
   176   155   154    2
   177   169   166    1
   178   183   184    1
   179   154   153    1
   180   162   161    1
   181   184   185    1
   182   186   185    2
   183   161   158    1
   184   166   167    1
   185   166   165    1
   186   153   152    1
   187   167   168    2
   188   158   159    1
   189   158   157    1
   190   152   149    1
   191   159   160    2
   192   149   148    1
   193   149   150    1
   194   150   151    2
