@<TRIPOS>MOLECULE
tmp/1toxA00.pdb
 187 186 0 0 0
SMALL
GASTEIGER

@<TRIPOS>ATOM
      1  N         24.6450  -46.9300  -14.1450 N.3    20  TYR20      -0.1227
      2  CA        24.2600  -45.7360  -14.8980 C.3    20  TYR20       0.1736
      3  C         25.2060  -45.3030  -16.0070 C.2    20  TYR20       0.2595
      4  O         26.4220  -45.4700  -15.9040 O.2    20  TYR20      -0.2718
      5  CB        24.1010  -44.5540  -13.9370 C.3    20  TYR20       0.0548
      6  CG        23.1180  -44.7940  -12.8300 C.ar   20  TYR20      -0.0200
      7  CD1       21.7650  -44.5450  -13.0170 C.ar   20  TYR20      -0.0009
      8  CD2       23.5370  -45.3050  -11.6000 C.ar   20  TYR20      -0.0009
      9  CE1       20.8470  -44.8040  -12.0200 C.ar   20  TYR20       0.0417
     10  CE2       22.6260  -45.5710  -10.5910 C.ar   20  TYR20       0.0417
     11  CZ        21.2830  -45.3220  -10.8140 C.ar   20  TYR20       0.1957
     12  OH        20.3690  -45.6360   -9.8530 O.3    20  TYR20      -0.2866
     13  N         24.6460  -44.6850  -17.0390 N.am   21  HIS21      -0.1961
     14  CA        25.4400  -44.2080  -18.1500 C.3    21  HIS21       0.1787
     15  C         24.9990  -42.7880  -18.4930 C.2    21  HIS21       0.2621
     16  O         23.8140  -42.5050  -18.5230 O.2    21  HIS21      -0.2715
     17  CB        25.2580  -45.1540  -19.3620 C.3    21  HIS21       0.0785
     18  CG        26.0920  -44.7890  -20.5590 C.ar   21  HIS21       0.0821
     19  ND1       27.3620  -45.2810  -20.7630 N.ar   21  HIS21      -0.2267
     20  CD2       25.8460  -43.9600  -21.6030 C.ar   21  HIS21       0.1154
     21  CE1       27.8630  -44.7730  -21.8760 C.ar   21  HIS21       0.1986
     22  NE2       26.9620  -43.9680  -22.4030 N.ar   21  HIS21      -0.2212
     23  N         25.9460  -41.8770  -18.6820 N.am   22  GLY22      -0.1940
     24  CA        25.6060  -40.5200  -19.0780 C.3    22  GLY22       0.2014
     25  C         25.8540  -40.4070  -20.5760 C.2    22  GLY22       0.2640
     26  O         26.8710  -40.9300  -21.0610 O.2    22  GLY22      -0.2714
     27  N         24.9270  -39.7760  -21.3070 N.am   23  THR23      -0.1936
     28  CA        25.0310  -39.6280  -22.7530 C.3    23  THR23       0.2028
     29  C         24.7990  -38.1940  -23.2160 C.2    23  THR23       0.2642
     30  O         24.2420  -37.3740  -22.4930 O.2    23  THR23      -0.2714
     31  CB        24.0910  -40.6390  -23.5280 C.3    23  THR23       0.1808
     32  OG1       24.4060  -40.6140  -24.9330 O.3    23  THR23      -0.2208
     33  CG2       22.6030  -40.3260  -23.3300 C.3    23  THR23       0.0379
     34  N         25.1870  -37.9260  -24.4580 N.am   24  LYS24      -0.1977
     35  CA        25.1250  -36.6020  -25.0690 C.3    24  LYS24       0.1596
     36  C         23.7830  -36.2110  -25.6410 C.2    24  LYS24       0.2287
     37  O         22.9450  -37.0590  -25.9320 O.2    24  LYS24      -0.2864
     38  CB        26.1180  -36.5480  -26.2100 C.3    24  LYS24       0.0298
     39  CG        27.4230  -37.2490  -25.9370 C.3    24  LYS24       0.0038
     40  CD        28.2190  -36.4610  -24.9050 C.3    24  LYS24       0.0206
     41  CE        29.5490  -37.1070  -24.6270 C.3    24  LYS24       0.1093
     42  NZ        30.2160  -36.3870  -23.5290 N.3    24  LYS24      -0.1314
     43  N         21.2090  -38.3250  -28.2280 N.3    27  TYR27      -0.1241
     44  CA        21.2500  -39.7800  -27.9970 C.3    27  TYR27       0.1605
     45  C         20.4910  -40.3000  -26.7950 C.2    27  TYR27       0.2264
     46  O         20.4830  -41.5030  -26.5620 O.2    27  TYR27      -0.2867
     47  CB        22.6720  -40.2530  -27.8540 C.3    27  TYR27       0.0534
     48  CG        23.5160  -39.8660  -29.0010 C.ar   27  TYR27      -0.0201
     49  CD1       24.1710  -38.6570  -29.0120 C.ar   27  TYR27      -0.0009
     50  CD2       23.6600  -40.7030  -30.0910 C.ar   27  TYR27      -0.0009
     51  CE1       24.9610  -38.2740  -30.0890 C.ar   27  TYR27       0.0417
     52  CE2       24.4480  -40.3360  -31.1800 C.ar   27  TYR27       0.0417
     53  CZ        25.0960  -39.1180  -31.1660 C.ar   27  TYR27       0.1957
     54  OH        25.9030  -38.7490  -32.2090 O.3    27  TYR27      -0.2866
     55  N         17.6180  -42.3740  -28.4850 N.3    30  SER30      -0.1202
     56  CA        18.1020  -43.5310  -29.2450 C.3    30  SER30       0.2020
     57  C         18.8530  -44.6010  -28.4310 C.2    30  SER30       0.2618
     58  O         18.8710  -45.7700  -28.8370 O.2    30  SER30      -0.2717
     59  CB        18.9560  -43.0970  -30.4410 C.3    30  SER30       0.2103
     60  OG        20.0520  -42.2970  -30.0640 O.3    30  SER30      -0.2182
     61  N         19.4720  -44.2130  -27.3030 N.am   31  ILE31      -0.1979
     62  CA        20.2170  -45.1600  -26.4600 C.3    31  ILE31       0.1595
     63  C         19.2650  -46.0810  -25.6870 C.2    31  ILE31       0.2287
     64  O         19.6130  -47.1940  -25.3020 O.2    31  ILE31      -0.2864
     65  CB        21.1960  -44.4300  -25.4760 C.3    31  ILE31       0.0276
     66  CG1       22.1980  -45.4410  -24.8690 C.3    31  ILE31       0.0022
     67  CG2       20.3950  -43.7210  -24.3730 C.3    31  ILE31       0.0022
     68  CD1       23.4460  -44.8260  -24.1860 C.3    31  ILE31       0.0001
     69  N         18.7620  -49.5900  -27.1920 N.3    34  GLY34      -0.1210
     70  CA        19.7220  -50.6580  -26.9660 C.3    34  GLY34       0.1956
     71  C         21.1550  -50.2050  -26.9140 C.2    34  GLY34       0.2612
     72  O         21.4920  -49.1990  -27.5370 O.2    34  GLY34      -0.2717
     73  N         21.9970  -50.9230  -26.1720 N.am   35  ILE35      -0.1965
     74  CA        23.4200  -50.5840  -26.0920 C.3    35  ILE35       0.1727
     75  C         24.0910  -51.2690  -27.2690 C.2    35  ILE35       0.2616
     76  O         23.9320  -52.4670  -27.4660 O.2    35  ILE35      -0.2715
     77  CB        24.1150  -51.0630  -24.7780 C.3    35  ILE35       0.0290
     78  CG1       23.4290  -50.4690  -23.5420 C.3    35  ILE35       0.0022
     79  CG2       25.5920  -50.6940  -24.8130 C.3    35  ILE35       0.0023
     80  CD1       23.1700  -48.9640  -23.5970 C.3    35  ILE35       0.0001
     81  N         24.8950  -50.5110  -28.0050 N.am   36  GLN36      -0.1977
     82  CA        25.5700  -51.0170  -29.1850 C.3    36  GLN36       0.1601
     83  C         26.8350  -50.2350  -29.4390 C.2    36  GLN36       0.2287
     84  O         26.8160  -49.0120  -29.4610 O.2    36  GLN36      -0.2864
     85  CB        24.6480  -50.7960  -30.3750 C.3    36  GLN36       0.0394
     86  CG        24.9730  -51.5590  -31.6210 C.3    36  GLN36       0.0908
     87  CD        23.7140  -51.8090  -32.3970 C.2    36  GLN36       0.2608
     88  OE1       23.1440  -50.8900  -32.9580 O.2    36  GLN36      -0.2717
     89  NE2       23.2240  -53.0430  -32.3630 N.am   36  GLN36      -0.0878
     90  N         29.2540  -48.0940  -30.9010 N.3    38  PRO38      -0.2116
     91  CA        29.1570  -47.1130  -31.9970 C.3    38  PRO38       0.1372
     92  C         30.3090  -47.2680  -32.9730 C.2    38  PRO38       0.2244
     93  O         31.4440  -47.5370  -32.5990 O.2    38  PRO38      -0.2868
     94  CB        29.2720  -45.7850  -31.2480 C.3    38  PRO38       0.0268
     95  CG        28.6520  -46.0300  -29.8640 C.3    38  PRO38       0.0207
     96  CD        29.1160  -47.4620  -29.5480 C.3    38  PRO38       0.0892
     97  N         34.9380  -51.0530  -24.4730 N.3    44  GLY44      -0.1210
     98  CA        33.7480  -51.5580  -23.8180 C.3    44  GLY44       0.1956
     99  C         32.7540  -50.4790  -23.4880 C.2    44  GLY44       0.2612
    100  O         33.0440  -49.3030  -23.6710 O.2    44  GLY44      -0.2717
    101  N         31.5750  -50.8890  -23.0250 N.am   45  PHE45      -0.1962
    102  CA        30.5260  -49.9510  -22.6360 C.3    45  PHE45       0.1771
    103  C         30.8140  -49.4840  -21.1870 C.2    45  PHE45       0.2620
    104  O         31.0880  -50.3080  -20.3100 O.2    45  PHE45      -0.2715
    105  CB        29.1530  -50.6140  -22.7560 C.3    45  PHE45       0.0574
    106  CG        28.0120  -49.7110  -22.3510 C.ar   45  PHE45      -0.0200
    107  CD1       27.7680  -48.5310  -23.0420 C.ar   45  PHE45      -0.0042
    108  CD2       27.2460  -50.0000  -21.2370 C.ar   45  PHE45      -0.0042
    109  CE1       26.7950  -47.6630  -22.6240 C.ar   45  PHE45      -0.0003
    110  CE2       26.2740  -49.1410  -20.8080 C.ar   45  PHE45      -0.0003
    111  CZ        26.0400  -47.9660  -21.4920 C.ar   45  PHE45      -0.0000
    112  N         30.7930  -48.1730  -20.9460 N.am   46  TYR46      -0.1960
    113  CA        31.0960  -47.6440  -19.6190 C.3    46  TYR46       0.1771
    114  C         29.9460  -47.0650  -18.8260 C.2    46  TYR46       0.2620
    115  O         29.2670  -46.1440  -19.2770 O.2    46  TYR46      -0.2715
    116  CB        32.2040  -46.5940  -19.6920 C.3    46  TYR46       0.0574
    117  CG        33.5660  -47.1960  -19.9250 C.ar   46  TYR46      -0.0198
    118  CD1       33.9400  -47.6120  -21.1990 C.ar   46  TYR46      -0.0009
    119  CD2       34.4530  -47.4080  -18.8630 C.ar   46  TYR46      -0.0009
    120  CE1       35.1530  -48.2370  -21.4210 C.ar   46  TYR46       0.0417
    121  CE2       35.6790  -48.0270  -19.0710 C.ar   46  TYR46       0.0417
    122  CZ        36.0250  -48.4490  -20.3540 C.ar   46  TYR46       0.1957
    123  OH        37.2120  -49.1240  -20.5930 O.3    46  TYR46      -0.2866
    124  N         29.7590  -47.6200  -17.6320 N.am   47  SER47      -0.1936
    125  CA        28.7430  -47.1770  -16.6960 C.3    47  SER47       0.2055
    126  C         29.4040  -46.9910  -15.3100 C.2    47  SER47       0.2643
    127  O         30.6050  -47.2330  -15.1320 O.2    47  SER47      -0.2714
    128  CB        27.5730  -48.1670  -16.6490 C.3    47  SER47       0.2130
    129  OG        28.0050  -49.5080  -16.5020 O.3    47  SER47      -0.2179
    130  N         28.6350  -46.5350  -14.3390 N.am   48  THR48      -0.1950
    131  CA        29.1570  -46.3080  -13.0130 C.3    48  THR48       0.1897
    132  C         28.0030  -46.5850  -12.0760 C.2    48  THR48       0.2313
    133  O         26.8660  -46.7470  -12.5030 O.2    48  THR48      -0.2863
    134  CB        29.6170  -44.8390  -12.8680 C.3    48  THR48       0.1794
    135  OG1       30.0670  -44.5820  -11.5360 O.3    48  THR48      -0.2208
    136  CG2       28.5000  -43.8980  -13.1740 C.3    48  THR48       0.0378
    137  N         27.7530  -40.1400  -13.5490 N.3    54  ALA54      -0.1245
    138  CA        27.3120  -40.4000  -14.9300 C.3    54  ALA54       0.1562
    139  C         26.9600  -39.0720  -15.5930 C.2    54  ALA54       0.2260
    140  O         27.2950  -38.8420  -16.7430 O.2    54  ALA54      -0.2867
    141  CB        26.0700  -41.2900  -14.9190 C.3    54  ALA54       0.0290
    142  N         29.3510  -37.0300  -17.8520 N.3    57  TYR57      -0.1241
    143  CA        29.6850  -37.5270  -19.1890 C.3    57  TYR57       0.1605
    144  C         28.6500  -37.1380  -20.2510 C.2    57  TYR57       0.2264
    145  O         28.7340  -37.6380  -21.3740 O.2    57  TYR57      -0.2867
    146  CB        29.7960  -39.0530  -19.1780 C.3    57  TYR57       0.0534
    147  CG        30.9520  -39.5550  -18.3790 C.ar   57  TYR57      -0.0201
    148  CD1       32.2400  -39.4260  -18.8560 C.ar   57  TYR57      -0.0009
    149  CD2       30.7650  -40.0760  -17.1090 C.ar   57  TYR57      -0.0009
    150  CE1       33.3060  -39.7800  -18.0920 C.ar   57  TYR57       0.0417
    151  CE2       31.8190  -40.4470  -16.3340 C.ar   57  TYR57       0.0417
    152  CZ        33.0940  -40.2910  -16.8210 C.ar   57  TYR57       0.1957
    153  OH        34.1840  -40.6140  -16.0390 O.3    57  TYR57      -0.2866
    154  N         36.2660  -45.8580   -9.3170 N.3   132  PHE132     -0.1241
    155  CA        35.9640  -44.7840  -10.2680 C.3   132  PHE132      0.1605
    156  C         37.0920  -43.7580  -10.3890 C.2   132  PHE132      0.2264
    157  O         37.4850  -43.3490  -11.4940 O.2   132  PHE132     -0.2867
    158  CB        34.6920  -44.0760   -9.8660 C.3   132  PHE132      0.0534
    159  CG        34.2510  -43.0390  -10.8310 C.ar  132  PHE132     -0.0203
    160  CD1       33.7630  -43.3980  -12.0680 C.ar  132  PHE132     -0.0042
    161  CD2       34.3240  -41.6990  -10.4960 C.ar  132  PHE132     -0.0042
    162  CE1       33.3540  -42.4280  -12.9580 C.ar  132  PHE132     -0.0003
    163  CE2       33.9210  -40.7250  -11.3660 C.ar  132  PHE132     -0.0003
    164  CZ        33.4320  -41.0870  -12.6080 C.ar  132  PHE132     -0.0000
    165  N         33.6360  -47.9160  -11.3690 N.3   140  GLU140     -0.1245
    166  CA        33.4570  -47.8340  -12.7950 C.3   140  GLU140      0.1567
    167  C         33.2620  -49.2720  -13.2860 C.2   140  GLU140      0.2260
    168  O         34.0150  -50.1760  -12.8970 O.2   140  GLU140     -0.2867
    169  CB        34.6740  -47.2000  -13.4540 C.3   140  GLU140      0.0388
    170  CG        34.6530  -47.3030  -14.9700 C.3   140  GLU140      0.1160
    171  CD        35.7670  -46.5300  -15.6260 C.2   140  GLU140      0.3649
    172  OE1       35.6130  -45.2920  -15.8070 O.co2 140  GLU140     -0.2457
    173  OE2       36.7910  -47.1630  -15.9650 O.co2 140  GLU140     -0.2457
    174  N         30.9780  -55.2930  -24.9480 N.3   145  TRP145     -0.1241
    175  CA        30.0110  -54.8390  -25.9460 C.3   145  TRP145      0.1605
    176  C         28.9210  -55.8450  -26.3460 C.2   145  TRP145      0.2264
    177  O         27.7470  -55.4630  -26.5010 O.2   145  TRP145     -0.2867
    178  CB        30.7290  -54.2880  -27.1990 C.3   145  TRP145      0.0550
    179  CG        31.2140  -52.8470  -27.1060 C.ar  145  TRP145      0.0003
    180  CD1       32.5050  -52.4140  -27.2150 C.ar  145  TRP145      0.0946
    181  CD2       30.4170  -51.6620  -26.8600 C.ar  145  TRP145      0.0152
    182  NE1       32.5600  -51.0490  -27.0440 N.ar  145  TRP145     -0.2442
    183  CE2       31.2990  -50.5650  -26.8240 C.ar  145  TRP145      0.0810
    184  CE3       29.0490  -51.4300  -26.6610 C.ar  145  TRP145      0.0012
    185  CZ2       30.8640  -49.2600  -26.5970 C.ar  145  TRP145      0.0191
    186  CZ3       28.6210  -50.1410  -26.4370 C.ar  145  TRP145      0.0001
    187  CH2       29.5260  -49.0670  -26.4060 C.ar  145  TRP145      0.0015
@<TRIPOS>BOND
     1    92    93    2
     2    92    91    1
     3    88    87    2
     4    87    89   am
     5    87    86    1
     6    54    53    1
     7    91    94    1
     8    91    90    1
     9    86    85    1
    10    94    95    1
    11    52    53   ar
    12    52    50   ar
    13    53    51   ar
    14    90    96    1
    15    59    60    1
    16    59    56    1
    17    85    82    1
    18    50    48   ar
    19    51    49   ar
    20    95    96    1
    21    84    83    2
    22    83    82    1
    23    56    55    1
    24    56    57    1
    25    82    81    1
    26    49    48   ar
    27    48    47    1
    28    58    57    2
    29    57    61   am
    30    43    44    1
    31    81    75   am
    32    44    47    1
    33    44    45    1
    34    72    71    2
    35    76    75    2
    36    61    62    1
    37    75    74    1
    38   180   179   ar
    39   180   182   ar
    40   178   179    1
    41   178   175    1
    42    69    70    1
    43   179   181   ar
    44   182   183   ar
    45    70    71    1
    46    71    73   am
    47   181   183   ar
    48   181   184   ar
    49   183   185   ar
    50    45    46    2
    51   184   186   ar
    52   185   187   ar
    53   177   176    2
    54    62    63    1
    55    62    65    1
    56   186   187   ar
    57   176   175    1
    58    38    39    1
    59    38    35    1
    60    73    74    1
    61    74    77    1
    62   175   174    1
    63    39    40    1
    64    37    36    2
    65    63    64    2
    66    36    35    1
    67    65    66    1
    68    65    67    1
    69    35    34    1
    70    32    31    1
    71    40    41    1
    72    66    68    1
    73    79    77    1
    74    77    78    1
    75    41    42    1
    76    97    98    1
    77    34    29   am
    78    98    99    1
    79   100    99    2
    80    80    78    1
    81    31    33    1
    82    31    28    1
    83    99   101   am
    84    29    28    1
    85    29    30    2
    86   107   109   ar
    87   107   106   ar
    88   101   102    1
    89   105   102    1
    90   105   106    1
    91    28    27    1
    92   102   103    1
    93   109   111   ar
    94    22    21   ar
    95    22    20   ar
    96   106   108   ar
    97    21    19   ar
    98    20    18   ar
    99   111   110   ar
   100   120   118   ar
   101   120   122   ar
   102   145   144    2
   103    27    25   am
   104   108   110   ar
   105   118   117   ar
   106   103   112   am
   107   103   104    2
   108    26    25    2
   109   112   113    1
   110    19    18   ar
   111   123   122    1
   112    25    24    1
   113    18    17    1
   114   122   121   ar
   115   144   143    1
   116   117   116    1
   117   117   119   ar
   118   116   113    1
   119   113   114    1
   120    17    14    1
   121   115   114    2
   122   143   146    1
   123   143   142    1
   124   146   147    1
   125    24    23    1
   126   121   119   ar
   127   148   147   ar
   128   148   150   ar
   129   114   124   am
   130    23    15   am
   131    16    15    2
   132    15    14    1
   133   147   149   ar
   134    14    13    1
   135   150   152   ar
   136   124   125    1
   137   149   151   ar
   138    13     3   am
   139   152   151   ar
   140   152   153    1
   141   140   139    2
   142   125   128    1
   143   125   126    1
   144   128   129    1
   145     3     4    2
   146     3     2    1
   147   173   171   ar
   148   172   171   ar
   149   171   170    1
   150   139   138    1
   151   126   127    2
   152   126   130   am
   153   170   169    1
   154   138   141    1
   155   138   137    1
   156     2     1    1
   157     2     5    1
   158   130   131    1
   159     5     6    1
   160   169   166    1
   161   167   168    2
   162   167   166    1
   163   136   134    1
   164     7     6   ar
   165     7     9   ar
   166   131   134    1
   167   131   132    1
   168   162   164   ar
   169   162   160   ar
   170   134   135    1
   171     6     8   ar
   172   166   165    1
   173   164   163   ar
   174   133   132    2
   175   160   159   ar
   176     9    11   ar
   177     8    10   ar
   178   157   156    2
   179   163   161   ar
   180   159   161   ar
   181   159   158    1
   182    11    10   ar
   183    11    12    1
   184   156   155    1
   185   155   158    1
   186   155   154    1
