@<TRIPOS>MOLECULE
tmp/1tp2B01.pdb
 153 152 0 0 0
SMALL
GASTEIGER

@<TRIPOS>ATOM
      1  N         12.9620   19.1810    9.3890 N.3     2  LEU2       -0.1231
      2  CA        11.6100   19.6770    9.5790 C.3     2  LEU2        0.1693
      3  C         10.5330   18.6510    9.2450 C.2     2  LEU2        0.2591
      4  O          9.4130   18.7270    9.7420 O.2     2  LEU2       -0.2718
      5  CB        11.3980   20.9380    8.7440 C.3     2  LEU2        0.0284
      6  CG        11.1290   22.1960    9.5770 C.3     2  LEU2        0.0019
      7  CD1       12.4170   22.6230   10.3150 C.3     2  LEU2        0.0001
      8  CD2       10.6110   23.3170    8.6650 C.3     2  LEU2        0.0001
      9  N         10.8660   17.6940    8.3980 N.am    3  LEU3       -0.1980
     10  CA         9.9040   16.6770    8.0520 C.3     3  LEU3        0.1596
     11  C          9.6050   15.7790    9.2440 C.2     3  LEU3        0.2287
     12  O          8.4930   15.2940    9.3760 O.2     3  LEU3       -0.2864
     13  CB        10.4200   15.8690    6.8700 C.3     3  LEU3        0.0297
     14  CG         9.7240   16.1470    5.5290 C.3     3  LEU3        0.0022
     15  CD1        9.1550   17.5550    5.5010 C.3     3  LEU3        0.0001
     16  CD2       10.7110   15.9160    4.3790 C.3     3  LEU3        0.0001
     17  N         10.1730   16.8780   12.4700 N.3     5  PHE5       -0.1227
     18  CA         9.6130   17.8320   13.4300 C.3     5  PHE5        0.1736
     19  C          8.1250   18.0490   13.1640 C.2     5  PHE5        0.2596
     20  O          7.3110   18.1110   14.0850 O.2     5  PHE5       -0.2718
     21  CB        10.3900   19.1540   13.3410 C.3     5  PHE5        0.0547
     22  CG         9.9560   20.1980   14.3380 C.ar    5  PHE5       -0.0202
     23  CD1        9.5370   19.8400   15.6220 C.ar    5  PHE5       -0.0042
     24  CD2        9.9740   21.5470   13.9930 C.ar    5  PHE5       -0.0042
     25  CE1        9.1360   20.8170   16.5440 C.ar    5  PHE5       -0.0003
     26  CE2        9.5770   22.5290   14.9070 C.ar    5  PHE5       -0.0003
     27  CZ         9.1560   22.1670   16.1830 C.ar    5  PHE5       -0.0000
     28  N          7.7700   18.1350   11.8900 N.am    6  GLY6       -0.1957
     29  CA         6.3840   18.3400   11.5360 C.3     6  GLY6        0.1869
     30  C          5.5600   17.1190   11.8500 C.2     6  GLY6        0.2309
     31  O          4.3780   17.2270   12.1500 O.2     6  GLY6       -0.2863
     32  N          4.8250   17.1310   15.5980 N.3     9  ILE9       -0.1245
     33  CA         3.8310   18.1570   15.8600 C.3     9  ILE9        0.1561
     34  C          2.4270   17.6600   15.5780 C.2     9  ILE9        0.2260
     35  O          1.5430   17.7980   16.4200 O.2     9  ILE9       -0.2867
     36  CB         4.0970   19.4180   15.0320 C.3     9  ILE9        0.0252
     37  CG1        5.4130   20.0580   15.4900 C.3     9  ILE9        0.0019
     38  CG2        2.9380   20.3760   15.1790 C.3     9  ILE9        0.0019
     39  CD1        5.7190   21.4210   14.8810 C.3     9  ILE9        0.0001
     40  N          1.7360   21.5860   11.1580 N.3    17  ALA17      -0.1231
     41  CA         2.7700   22.5800   11.4260 C.3    17  ALA17       0.1694
     42  C          2.5050   23.8750   10.6620 C.2    17  ALA17       0.2591
     43  O          2.5810   24.9790   11.2180 O.2    17  ALA17      -0.2718
     44  CB         4.1210   22.0150   11.0620 C.3    17  ALA17       0.0304
     45  N          2.2520   23.7090    9.3470 N.am   18  ILE18      -0.1980
     46  CA         1.9210   24.8480    8.5040 C.3    18  ILE18       0.1595
     47  C          0.3970   24.9410    8.5340 C.2    18  ILE18       0.2287
     48  O         -0.3230   24.0350    8.1200 O.2    18  ILE18      -0.2864
     49  CB         2.4620   24.6970    7.0800 C.3    18  ILE18       0.0276
     50  CG1        3.9830   24.4760    7.1710 C.3    18  ILE18       0.0022
     51  CG2        2.1300   25.9160    6.2400 C.3    18  ILE18       0.0022
     52  CD1        4.6620   24.2500    5.8420 C.3    18  ILE18       0.0001
     53  N          1.1990   26.3650   13.3940 N.3    21  TYR21      -0.1227
     54  CA         2.4090   26.8090   14.1010 C.3    21  TYR21       0.1736
     55  C          3.4660   27.5340   13.2750 C.2    21  TYR21       0.2596
     56  O          4.6080   27.6730   13.7180 O.2    21  TYR21      -0.2718
     57  CB         3.0680   25.6220   14.8080 C.3    21  TYR21       0.0548
     58  CG         2.2470   25.0370   15.9280 C.ar   21  TYR21      -0.0200
     59  CD1        2.2890   25.5790   17.2130 C.ar   21  TYR21      -0.0009
     60  CD2        1.4400   23.9250   15.7120 C.ar   21  TYR21      -0.0009
     61  CE1        1.5510   25.0200   18.2610 C.ar   21  TYR21       0.0417
     62  CE2        0.6930   23.3610   16.7490 C.ar   21  TYR21       0.0417
     63  CZ         0.7570   23.9070   18.0190 C.ar   21  TYR21       0.1957
     64  OH         0.0500   23.3150   19.0400 O.3    21  TYR21      -0.2866
     65  N          3.0920   27.9930   12.0860 N.am   22  SER22      -0.1952
     66  CA         4.0230   28.7020   11.2070 C.3    22  SER22       0.1924
     67  C          3.8120   30.2290   11.1340 C.2    22  SER22       0.2314
     68  O          4.6530   30.9420   10.5970 O.2    22  SER22      -0.2863
     69  CB         3.9700   28.0930    9.8000 C.3    22  SER22       0.2116
     70  OG         2.6470   28.0490    9.3100 O.3    22  SER22      -0.2180
     71  N          7.1170   34.2240   17.5410 N.3    27  TYR27      -0.1227
     72  CA         8.1970   33.2890   17.2660 C.3    27  TYR27       0.1736
     73  C          7.8780   32.0140   16.4960 C.2    27  TYR27       0.2596
     74  O          8.7760   31.4300   15.8870 O.2    27  TYR27      -0.2718
     75  CB         8.9320   32.9420   18.5680 C.3    27  TYR27       0.0548
     76  CG         9.7590   34.0940   19.1020 C.ar   27  TYR27      -0.0200
     77  CD1        9.1960   35.0670   19.9300 C.ar   27  TYR27      -0.0009
     78  CD2       11.0820   34.2630   18.6930 C.ar   27  TYR27      -0.0009
     79  CE1        9.9400   36.1850   20.3260 C.ar   27  TYR27       0.0417
     80  CE2       11.8260   35.3630   19.0750 C.ar   27  TYR27       0.0417
     81  CZ        11.2570   36.3260   19.8890 C.ar   27  TYR27       0.1957
     82  OH        12.0110   37.4310   20.2320 O.3    27  TYR27      -0.2866
     83  N          6.6330   31.5610   16.5120 N.am   28  CYS28      -0.1956
     84  CA         6.3270   30.3520   15.7670 C.3    28  CYS28       0.1843
     85  C          6.2640   30.7610   14.3010 C.2    28  CYS28       0.2626
     86  O          5.2630   31.2940   13.8120 O.2    28  CYS28      -0.2714
     87  CB         5.0000   29.7220   16.2130 C.3    28  CYS28       0.0997
     88  SG         4.8810   29.3330   17.9890 S.3    28  CYS28      -0.0797
     89  N          7.3680   30.4990   13.6180 N.am   29  GLY29      -0.1940
     90  CA         7.4900   30.8530   12.2260 C.3    29  GLY29       0.2014
     91  C          8.9420   31.1660   11.9610 C.2    29  GLY29       0.2638
     92  O          9.8160   30.5150   12.5270 O.2    29  GLY29      -0.2714
     93  N          9.2160   32.1720   11.1390 N.am   30  TRP30      -0.1973
     94  CA        10.5870   32.5190   10.8120 C.3    30  TRP30       0.1640
     95  C         11.0120   33.9440   11.1690 C.2    30  TRP30       0.2290
     96  O         12.1930   34.2100   11.3800 O.2    30  TRP30      -0.2864
     97  CB        10.8220   32.1960    9.3360 C.3    30  TRP30       0.0576
     98  CG        10.6860   30.7210    9.1430 C.ar   30  TRP30       0.0006
     99  CD1       11.5790   29.7800    9.5290 C.ar   30  TRP30       0.0946
    100  CD2        9.5310   30.0100    8.6470 C.ar   30  TRP30       0.0152
    101  NE1       11.0690   28.5250    9.3360 N.ar   30  TRP30      -0.2442
    102  CE2        9.8140   28.6280    8.7960 C.ar   30  TRP30       0.0810
    103  CE3        8.2950   30.3840    8.1160 C.ar   30  TRP30       0.0012
    104  CZ2        8.9060   27.6220    8.4260 C.ar   30  TRP30       0.0191
    105  CZ3        7.3810   29.3750    7.7420 C.ar   30  TRP30       0.0001
    106  CH2        7.7050   28.0110    7.8980 C.ar   30  TRP30       0.0015
    107  N          8.0440   28.0010   21.0670 N.3    44  CYS44      -0.1235
    108  CA         8.7160   28.3400   19.8200 C.3    44  CYS44       0.1677
    109  C          9.9720   29.1680   20.0590 C.2    44  CYS44       0.2270
    110  O         10.9910   28.9590   19.4030 O.2    44  CYS44      -0.2867
    111  CB         7.7630   29.0800   18.8780 C.3    44  CYS44       0.0956
    112  SG         6.3790   28.0200   18.3520 S.3    44  CYS44      -0.0801
    113  N         12.5760   26.8760   21.3410 N.3    47  HIS47      -0.1226
    114  CA        13.0000   25.9750   20.2910 C.3    47  HIS47       0.1752
    115  C         14.0530   26.5400   19.3690 C.2    47  HIS47       0.2596
    116  O         15.0250   25.8520   19.0970 O.2    47  HIS47      -0.2718
    117  CB        11.8130   25.4890   19.4680 C.3    47  HIS47       0.0759
    118  CG        12.1840   24.4860   18.4260 C.ar   47  HIS47       0.0818
    119  ND1       12.2990   24.8060   17.0910 N.ar   47  HIS47      -0.2268
    120  CD2       12.4770   23.1670   18.5200 C.ar   47  HIS47       0.1154
    121  CE1       12.6410   23.7280   16.4090 C.ar   47  HIS47       0.1986
    122  NE2       12.7550   22.7210   17.2520 N.ar   47  HIS47      -0.2212
    123  N         13.9150   27.7660   18.8700 N.am   48  ASP48      -0.1974
    124  CA        14.9900   28.1880   18.0000 C.3    48  ASP48       0.1709
    125  C         16.1930   28.6840   18.7870 C.2    48  ASP48       0.2293
    126  O         17.2590   28.9540   18.2160 O.2    48  ASP48      -0.2864
    127  CB        14.5330   29.1750   16.9060 C.3    48  ASP48       0.1436
    128  CG        14.1310   30.5060   17.4340 C.2    48  ASP48       0.3671
    129  OD1       12.9110   30.7360   17.5880 O.co2  48  ASP48      -0.2456
    130  OD2       15.0420   31.3260   17.6740 O.co2  48  ASP48      -0.2456
    131  N         18.0520   25.6060   18.5860 N.3    51  TYR51      -0.1241
    132  CA        18.7090   25.4260   17.2960 C.3    51  TYR51       0.1605
    133  C         19.9630   26.2970   17.2740 C.2    51  TYR51       0.2264
    134  O         20.9040   26.0440   16.5230 O.2    51  TYR51      -0.2867
    135  CB        17.7660   25.8290   16.1510 C.3    51  TYR51       0.0534
    136  CG        16.8340   24.7370   15.6210 C.ar   51  TYR51      -0.0201
    137  CD1       16.6460   23.5340   16.3080 C.ar   51  TYR51      -0.0009
    138  CD2       16.1480   24.9120   14.4120 C.ar   51  TYR51      -0.0009
    139  CE1       15.8010   22.5310   15.7970 C.ar   51  TYR51       0.0417
    140  CE2       15.3060   23.9170   13.8960 C.ar   51  TYR51       0.0417
    141  CZ        15.1390   22.7330   14.5910 C.ar   51  TYR51       0.1957
    142  OH        14.3230   21.7620   14.0720 O.3    51  TYR51      -0.2866
    143  N          4.1300   22.0560   22.8110 N.3    96  PHE96      -0.1241
    144  CA         2.9340   22.4990   22.0860 C.3    96  PHE96       0.1605
    145  C          1.7150   21.7490   22.5990 C.2    96  PHE96       0.2264
    146  O          0.6160   22.3070   22.6490 O.2    96  PHE96      -0.2867
    147  CB         3.0330   22.2400   20.5740 C.3    96  PHE96       0.0534
    148  CG         4.0490   23.0760   19.8660 C.ar   96  PHE96      -0.0203
    149  CD1        4.4140   24.3250   20.3470 C.ar   96  PHE96      -0.0042
    150  CD2        4.6180   22.6240   18.6800 C.ar   96  PHE96      -0.0042
    151  CE1        5.3310   25.1140   19.6560 C.ar   96  PHE96      -0.0003
    152  CE2        5.5310   23.4010   17.9830 C.ar   96  PHE96      -0.0003
    153  CZ         5.8900   24.6500   18.4710 C.ar   96  PHE96      -0.0000
@<TRIPOS>BOND
     1    16    14    1
     2    15    14    1
     3    14    13    1
     4    52    50    1
     5    51    49    1
     6    13    10    1
     7    49    50    1
     8    49    46    1
     9   105   106   ar
    10   105   103   ar
    11   106   104   ar
    12    10     9    1
    13    10    11    1
    14   103   100   ar
    15    48    47    2
    16     9     3   am
    17   104   102   ar
    18    46    47    1
    19    46    45    1
    20   100   102   ar
    21   100    98   ar
    22     8     6    1
    23     5     6    1
    24     5     2    1
    25   102   101   ar
    26    98    97    1
    27    98    99   ar
    28    11    12    2
    29     3     2    1
    30     3     4    2
    31    70    69    1
    32   101    99   ar
    33    97    94    1
    34    45    42   am
    35     1     2    1
    36     6     7    1
    37    69    66    1
    38    68    67    2
    39    42    43    2
    40    42    41    1
    41    94    93    1
    42    94    95    1
    43    44    41    1
    44    67    66    1
    45    93    91   am
    46    40    41    1
    47    95    96    2
    48    66    65    1
    49    29    30    1
    50    29    28    1
    51    30    31    2
    52    28    19   am
    53    91    90    1
    54    91    92    2
    55    65    55   am
    56    90    89    1
    57    17    18    1
    58    19    18    1
    59    19    20    2
    60    55    56    2
    61    55    54    1
    62    21    18    1
    63    21    22    1
    64    53    54    1
    65    89    85   am
    66    86    85    2
    67   140   138   ar
    68   140   141   ar
    69    24    22   ar
    70    24    26   ar
    71   142   141    1
    72    54    57    1
    73    85    84    1
    74    22    23   ar
    75   138   136   ar
    76   141   139   ar
    77    57    58    1
    78    39    37    1
    79    26    27   ar
    80    36    38    1
    81    36    37    1
    82    36    33    1
    83    34    33    1
    84    34    35    2
    85    32    33    1
    86   136   135    1
    87   136   137   ar
    88    23    25   ar
    89    60    58   ar
    90    60    62   ar
    91    84    87    1
    92    84    83    1
    93   139   137   ar
    94    74    73    2
    95    58    59   ar
    96   135   132    1
    97    27    25   ar
    98    87    88    1
    99   121   119   ar
   100   121   122   ar
   101    73    83   am
   102    73    72    1
   103   134   133    2
   104    62    63   ar
   105   127   128    1
   106   127   124    1
   107   119   118   ar
   108    59    61   ar
   109   122   120   ar
   110    72    71    1
   111    72    75    1
   112   133   132    1
   113   132   131    1
   114   128   129   ar
   115   128   130   ar
   116   152   153   ar
   117   152   150   ar
   118    88   112    1
   119   124   125    1
   120   124   123    1
   121    63    61   ar
   122    63    64    1
   123   126   125    2
   124   112   111    1
   125   118   120   ar
   126   118   117    1
   127   153   151   ar
   128    75    76    1
   129   150   148   ar
   130    78    80   ar
   131    78    76   ar
   132   123   115   am
   133   111   108    1
   134    80    81   ar
   135   116   115    2
   136    76    77   ar
   137   115   114    1
   138   110   109    2
   139   117   114    1
   140   151   149   ar
   141   108   109    1
   142   108   107    1
   143   148   149   ar
   144   148   147    1
   145    81    82    1
   146    81    79   ar
   147    77    79   ar
   148   114   113    1
   149   147   144    1
   150   144   145    1
   151   144   143    1
   152   145   146    2
