@<TRIPOS>MOLECULE
tmp/1tp3A00.pdb
 134 130 0 0 0
SMALL
GASTEIGER

@<TRIPOS>ATOM
      1  N         53.2080   60.1580   26.6260 N.3    18  ARG18      -0.1301
      2  CA        52.5270   60.4760   25.4000 C.3    18  ARG18       0.1248
      3  C         53.2560   59.9250   24.1610 C.3    18  ARG18       0.2009
      4  O         52.8940   60.2870   22.9780 O.3    18  ARG18      -0.2188
      5  CB        52.3600   61.9870   25.2830 C.3    18  ARG18       0.0254
      6  CG        53.5450   62.7740   25.4760 C.3    18  ARG18       0.0485
      7  CD        54.6010   62.6360   24.4330 C.3    18  ARG18       0.2205
      8  NE        55.7610   63.5470   24.6290 N.pl3  18  ARG18      -0.0865
      9  CZ        55.8450   64.8660   24.2780 C.cat  18  ARG18       0.5346
     10  NH1       54.8430   65.4860   23.6410 N.pl3  18  ARG18       0.1354
     11  NH2       56.9650   65.5870   24.5980 N.pl3  18  ARG18       0.1354
     12  N         51.4980   64.6220   20.5850 N.3    22  GLY22      -0.1210
     13  CA        51.1910   65.7960   21.3400 C.3    22  GLY22       0.1956
     14  C         50.6450   65.5830   22.7760 C.2    22  GLY22       0.2612
     15  O         49.7970   64.7420   23.0860 O.2    22  GLY22      -0.2717
     16  N         51.0780   66.5050   23.6320 N.am   23  LEU23      -0.1965
     17  CA        50.6370   66.5960   25.0110 C.3    23  LEU23       0.1728
     18  C         49.1840   66.9750   25.2110 C.2    23  LEU23       0.2617
     19  O         48.5080   66.5210   26.1530 O.2    23  LEU23      -0.2715
     20  CB        51.5610   67.5940   25.7730 C.3    23  LEU23       0.0311
     21  CG        52.9440   67.1130   26.0270 C.3    23  LEU23       0.0022
     22  CD1       53.7580   68.1510   26.5980 C.3    23  LEU23       0.0001
     23  CD2       52.9720   65.9770   26.9610 C.3    23  LEU23       0.0001
     24  N         48.6540   67.7220   24.2830 N.am   24  GLY24      -0.1940
     25  CA        47.2630   68.0850   24.3290 C.3    24  GLY24       0.2014
     26  C         46.8820   69.2050   25.2390 C.2    24  GLY24       0.2639
     27  O         45.8290   69.1720   25.8940 O.2    24  GLY24      -0.2714
     28  N         47.7140   70.2380   25.2610 N.am   25  PHE25      -0.1959
     29  CA        47.3360   71.5080   25.9490 C.3    25  PHE25       0.1771
     30  C         48.1460   72.6350   25.3390 C.2    25  PHE25       0.2620
     31  O         49.1320   72.3870   24.6550 O.2    25  PHE25      -0.2715
     32  CB        47.5020   71.3850   27.4780 C.3    25  PHE25       0.0574
     33  CG        48.8910   71.3360   27.9620 C.ar   25  PHE25      -0.0200
     34  CD1       49.5860   72.4870   28.1640 C.ar   25  PHE25      -0.0042
     35  CD2       49.4890   70.1220   28.2610 C.ar   25  PHE25      -0.0042
     36  CE1       50.8740   72.4160   28.6030 C.ar   25  PHE25      -0.0003
     37  CE2       50.7820   70.0530   28.6250 C.ar   25  PHE25      -0.0003
     38  CZ        51.4500   71.2330   28.9250 C.ar   25  PHE25      -0.0000
     39  N         47.6650   73.8330   25.5520 N.am   26  ASN26      -0.1958
     40  CA        48.1570   75.0620   24.9830 C.3    26  ASN26       0.1819
     41  C         48.5900   75.8520   26.1610 C.2    26  ASN26       0.2621
     42  O         48.0910   75.6100   27.2450 O.2    26  ASN26      -0.2715
     43  CB        47.1040   75.8560   24.3950 C.3    26  ASN26       0.1195
     44  CG        46.5290   75.2370   23.1510 C.2    26  ASN26       0.2630
     45  OD1       46.9870   74.2430   22.7050 O.2    26  ASN26      -0.2716
     46  ND2       45.4040   75.8340   22.6490 N.am   26  ASN26      -0.0877
     47  N         49.5200   76.7600   25.9130 N.am   27  ILE27      -0.1963
     48  CA        50.0740   77.5590   26.9050 C.3    27  ILE27       0.1727
     49  C         49.9910   78.9880   26.4530 C.2    27  ILE27       0.2616
     50  O         49.9550   79.2530   25.2800 O.2    27  ILE27      -0.2715
     51  CB        51.5990   77.2000   27.1350 C.3    27  ILE27       0.0290
     52  CG1       52.4420   77.1230   25.8480 C.3    27  ILE27       0.0022
     53  CG2       51.6920   75.8760   27.7210 C.3    27  ILE27       0.0023
     54  CD1       53.8090   77.6030   26.0130 C.3    27  ILE27       0.0001
     55  N         49.9250   79.8490   27.4130 N.am   28  VAL28      -0.1963
     56  CA        50.0650   81.2660   27.2400 C.3    28  VAL28       0.1727
     57  C         51.0770   81.8020   28.2760 C.2    28  VAL28       0.2616
     58  O         51.4000   81.1420   29.2820 O.2    28  VAL28      -0.2715
     59  CB        48.7120   82.0180   27.5330 C.3    28  VAL28       0.0290
     60  CG1       47.6390   81.6630   26.6070 C.3    28  VAL28       0.0023
     61  CG2       48.2590   81.5410   28.8830 C.3    28  VAL28       0.0023
     62  N         51.4730   83.0310   28.0180 N.am   29  GLY29      -0.1955
     63  CA        52.4580   83.8200   28.7820 C.3    29  GLY29       0.1869
     64  C         53.9160   83.6930   28.3180 C.2    29  GLY29       0.2309
     65  O         54.2660   83.4460   27.1120 O.2    29  GLY29      -0.2863
     66  N         56.1690   86.3310   28.3890 N.3    31  GLU31      -0.1245
     67  CA        56.8400   87.6510   28.3400 C.3    31  GLU31       0.1567
     68  C         57.4460   88.2330   29.6150 C.2    31  GLU31       0.2260
     69  O         56.7650   88.3480   30.5850 O.2    31  GLU31      -0.2867
     70  CB        55.9250   88.7000   27.7580 C.3    31  GLU31       0.0388
     71  CG        56.3350   88.9060   26.2770 C.3    31  GLU31       0.1160
     72  CD        55.4360   88.1970   25.2690 C.2    31  GLU31       0.3649
     73  OE1       54.3970   88.8860   24.8920 O.co2  31  GLU31      -0.2457
     74  OE2       55.7390   86.9750   24.8810 O.co2  31  GLU31      -0.2457
     75  N         46.3900   77.0310   29.1380 N.3    39  SER39      -0.1202
     76  CA        45.1410   77.7480   28.8290 C.3    39  SER39       0.2020
     77  C         43.9160   76.8660   28.3650 C.2    39  SER39       0.2618
     78  O         42.8080   77.4110   28.2710 O.2    39  SER39      -0.2717
     79  CB        45.3750   78.7860   27.7450 C.3    39  SER39       0.2103
     80  OG        46.0980   78.2840   26.5980 O.3    39  SER39      -0.2182
     81  N         44.1930   75.6700   27.8780 N.am   40  PHE40      -0.1975
     82  CA        43.2610   74.8190   27.0400 C.3    40  PHE40       0.1639
     83  C         43.8820   73.4660   27.0890 C.2    40  PHE40       0.2290
     84  O         45.0720   73.3020   26.9060 O.2    40  PHE40      -0.2864
     85  CB        43.2080   75.3030   25.6350 C.3    40  PHE40       0.0560
     86  CG        42.4520   74.4160   24.7080 C.ar   40  PHE40      -0.0200
     87  CD1       43.1070   73.4470   24.0070 C.ar   40  PHE40      -0.0042
     88  CD2       41.0390   74.5410   24.5390 C.ar   40  PHE40      -0.0042
     89  CE1       42.3800   72.6380   23.1750 C.ar   40  PHE40      -0.0003
     90  CE2       40.3180   73.7320   23.6730 C.ar   40  PHE40      -0.0003
     91  CZ        40.9390   72.8300   22.9990 C.ar   40  PHE40      -0.0000
     92  N         58.0960   82.2660   25.7820 N.3    72  HIS72      -0.1297
     93  CA        56.9730   81.4480   25.2980 C.3    72  HIS72       0.1306
     94  C         57.4600   80.3740   24.3280 C.3    72  HIS72       0.2013
     95  O         57.1280   79.1400   24.4870 O.3    72  HIS72      -0.2188
     96  CB        55.8630   82.3570   24.6310 C.3    72  HIS72       0.0691
     97  CG        54.6140   81.6070   24.1440 C.ar   72  HIS72       0.0814
     98  ND1       53.4640   81.4660   24.8980 N.ar   72  HIS72      -0.2268
     99  CD2       54.3930   80.8940   23.0140 C.ar   72  HIS72       0.1154
    100  CE1       52.5700   80.7690   24.2130 C.ar   72  HIS72       0.1986
    101  NE2       53.1010   80.4320   23.0670 N.ar   72  HIS72      -0.2212
    102  N         57.6150   76.2510   24.7260 N.3    76  ALA76      -0.1245
    103  CA        56.9840   75.3810   23.8310 C.3    76  ALA76       0.1562
    104  C         57.9360   74.3190   23.2670 C.2    76  ALA76       0.2260
    105  O         57.6440   73.1300   23.1360 O.2    76  ALA76      -0.2867
    106  CB        56.4480   76.2470   22.7180 C.3    76  ALA76       0.0290
    107  N         58.6830   71.7030   25.8050 N.3    79  LEU79      -0.1231
    108  CA        57.5360   70.8460   25.9270 C.3    79  LEU79       0.1693
    109  C         57.4790   69.8720   24.7740 C.2    79  LEU79       0.2591
    110  O         57.4100   68.6780   25.0210 O.2    79  LEU79      -0.2718
    111  CB        56.3040   71.6210   26.0630 C.3    79  LEU79       0.0284
    112  CG        56.0340   72.1970   27.4820 C.3    79  LEU79       0.0019
    113  CD1       55.0710   73.3530   27.2010 C.3    79  LEU79       0.0001
    114  CD2       55.7290   71.0980   28.6060 C.3    79  LEU79       0.0001
    115  N         57.6570   70.3260   23.5660 N.am   80  LYS80      -0.1980
    116  CA        57.6200   69.4360   22.4980 C.3    80  LYS80       0.1596
    117  C         58.7810   68.4950   22.4400 C.2    80  LYS80       0.2287
    118  O         58.6330   67.4350   21.8910 O.2    80  LYS80      -0.2864
    119  CB        57.5460   70.1900   21.1600 C.3    80  LYS80       0.0298
    120  CG        56.2390   71.0150   21.0500 C.3    80  LYS80       0.0038
    121  CD        56.1950   71.9990   19.8930 C.3    80  LYS80       0.0206
    122  CE        54.8330   72.5810   19.7610 C.3    80  LYS80       0.1093
    123  NZ        54.6250   72.9370   18.2780 N.3    80  LYS80      -0.1314
    124  N         45.1800   86.9220   31.6590 N.3   100  PHE100     -0.1241
    125  CA        45.3450   86.6860   30.1920 C.3   100  PHE100      0.1605
    126  C         43.9910   86.5450   29.4750 C.2   100  PHE100      0.2264
    127  O         43.8240   86.9990   28.3440 O.2   100  PHE100     -0.2867
    128  CB        46.1100   85.3950   30.0060 C.3   100  PHE100      0.0534
    129  CG        47.5440   85.5180   30.4040 C.ar  100  PHE100     -0.0203
    130  CD1       48.4590   86.1190   29.5430 C.ar  100  PHE100     -0.0042
    131  CD2       47.9610   85.0960   31.6230 C.ar  100  PHE100     -0.0042
    132  CE1       49.8040   86.2410   29.8940 C.ar  100  PHE100     -0.0003
    133  CE2       49.2400   85.2500   32.0030 C.ar  100  PHE100     -0.0003
    134  CZ        50.1850   85.8190   31.1230 C.ar  100  PHE100     -0.0000
@<TRIPOS>BOND
     1   123   122    1
     2   122   121    1
     3   121   120    1
     4    12    13    1
     5   120   119    1
     6   119   116    1
     7    13    14    1
     8   118   117    2
     9   117   116    1
    10   116   115    1
    11    46    44   am
    12    45    44    2
    13   106   103    1
    14    14    15    2
    15    14    16   am
    16     4     3    1
    17    91    89   ar
    18    91    90   ar
    19    99   101   ar
    20    99    97   ar
    21   101   100   ar
    22   105   104    2
    23    44    43    1
    24    89    87   ar
    25   104   103    1
    26   115   109   am
    27    16    17    1
    28    10     9    1
    29    90    88   ar
    30   103   102    1
    31    87    86   ar
    32    97    96    1
    33    97    98   ar
    34     3     2    1
    35   100    98   ar
    36     9    11    1
    37     9     8    2
    38    24    25    1
    39    24    18   am
    40    94    95    1
    41    94    93    1
    42    25    26    1
    43    43    40    1
    44     7     8    1
    45     7     6    1
    46    88    86   ar
    47    96    93    1
    48    31    30    2
    49    86    85    1
    50   109   110    2
    51   109   108    1
    52    74    72   ar
    53    73    72   ar
    54    40    39    1
    55    40    41    1
    56    17    18    1
    57    17    20    1
    58    18    19    2
    59    26    28   am
    60    26    27    2
    61    28    29    1
    62    72    71    1
    63    50    49    2
    64     5     2    1
    65     5     6    1
    66    93    92    1
    67    30    39   am
    68    30    29    1
    69     2     1    1
    70    85    82    1
    71    20    21    1
    72   107   108    1
    73    52    54    1
    74    52    51    1
    75    47    41   am
    76    47    48    1
    77   108   111    1
    78    29    32    1
    79    21    22    1
    80    21    23    1
    81   111   112    1
    82    41    42    2
    83    71    70    1
    84    49    48    1
    85    49    55   am
    86    80    79    1
    87    60    59    1
    88    48    51    1
    89    84    83    2
    90    82    83    1
    91    82    81    1
    92    65    64    2
    93    51    53    1
    94   113   112    1
    95    56    55    1
    96    56    59    1
    97    56    57    1
    98    32    33    1
    99   112   114    1
   100    59    61    1
   101    79    76    1
   102    70    67    1
   103    81    77   am
   104    33    34   ar
   105    33    35   ar
   106    62    57   am
   107    62    63    1
   108    34    36   ar
   109    35    37   ar
   110    78    77    2
   111    57    58    2
   112    64    63    1
   113    67    66    1
   114    67    68    1
   115   127   126    2
   116    77    76    1
   117    36    38   ar
   118    37    38   ar
   119    76    75    1
   120   126   125    1
   121   130   132   ar
   122   130   129   ar
   123    68    69    2
   124   132   134   ar
   125   128   125    1
   126   128   129    1
   127   125   124    1
   128   129   131   ar
   129   134   133   ar
   130   131   133   ar
