@<TRIPOS>MOLECULE
tmp/1tp5A00.pdb
 140 135 0 0 0
SMALL
GASTEIGER

@<TRIPOS>ATOM
      1  N         31.1340   49.2400   52.1880 N.3    18  ARG18      -0.1245
      2  CA        30.4580   47.9910   51.8450 C.3    18  ARG18       0.1563
      3  C         31.1510   46.7260   52.3650 C.2    18  ARG18       0.2260
      4  O         30.7560   45.6270   51.9790 O.2    18  ARG18      -0.2867
      5  CB        30.2050   47.8510   50.3310 C.3    18  ARG18       0.0307
      6  CG        31.4010   48.0700   49.4290 C.3    18  ARG18       0.0489
      7  CD        32.4780   47.0000   49.5630 C.3    18  ARG18       0.2205
      8  NE        33.5620   47.2080   48.6370 N.pl3  18  ARG18      -0.0865
      9  CZ        33.5910   46.8060   47.3660 C.cat  18  ARG18       0.5346
     10  NH1       32.5890   46.1660   46.8250 N.pl3  18  ARG18       0.1354
     11  NH2       34.6360   47.0670   46.5920 N.pl3  18  ARG18       0.1354
     12  N         29.1400   43.1780   47.5950 N.3    22  GLY22      -0.1210
     13  CA        29.0450   43.9140   46.3600 C.3    22  GLY22       0.1956
     14  C         28.5190   45.3140   46.5650 C.2    22  GLY22       0.2612
     15  O         27.8470   45.6310   47.5360 O.2    22  GLY22      -0.2717
     16  N         28.8440   46.1810   45.6070 N.am   23  LEU23      -0.1965
     17  CA        28.3400   47.5510   45.6290 C.3    23  LEU23       0.1728
     18  C         26.8870   47.6480   45.2830 C.2    23  LEU23       0.2617
     19  O         26.2450   48.5650   45.7360 O.2    23  LEU23      -0.2715
     20  CB        29.1460   48.4580   44.6870 C.3    23  LEU23       0.0311
     21  CG        30.5410   48.7890   45.2080 C.3    23  LEU23       0.0022
     22  CD1       31.4930   49.1590   44.0810 C.3    23  LEU23       0.0001
     23  CD2       30.4610   49.8960   46.1820 C.3    23  LEU23       0.0001
     24  N         26.3570   46.6940   44.5460 N.am   24  GLY24      -0.1940
     25  CA        24.9360   46.7090   44.2200 C.3    24  GLY24       0.2014
     26  C         24.5360   47.6090   43.0850 C.2    24  GLY24       0.2639
     27  O         23.4890   48.2220   43.1390 O.2    24  GLY24      -0.2714
     28  N         25.3720   47.7340   42.0580 N.am   25  PHE25      -0.1959
     29  CA        24.9550   48.3870   40.8030 C.3    25  PHE25       0.1771
     30  C         25.6700   47.7450   39.6440 C.2    25  PHE25       0.2620
     31  O         26.6380   47.0290   39.8380 O.2    25  PHE25      -0.2715
     32  CB        25.1590   49.9030   40.8300 C.3    25  PHE25       0.0574
     33  CG        26.5860   50.3730   40.8880 C.ar   25  PHE25      -0.0200
     34  CD1       27.3770   50.5400   39.7340 C.ar   25  PHE25      -0.0042
     35  CD2       27.1460   50.7220   42.0930 C.ar   25  PHE25      -0.0042
     36  CE1       28.6760   51.0300   39.8370 C.ar   25  PHE25      -0.0003
     37  CE2       28.4070   51.2260   42.1750 C.ar   25  PHE25      -0.0003
     38  CZ        29.1760   51.3770   41.0520 C.ar   25  PHE25      -0.0000
     39  N         25.1340   47.9440   38.4550 N.am   26  ASN26      -0.1958
     40  CA        25.7280   47.4800   37.2260 C.3    26  ASN26       0.1819
     41  C         26.2160   48.6670   36.4010 C.2    26  ASN26       0.2621
     42  O         25.7240   49.7830   36.5400 O.2    26  ASN26      -0.2715
     43  CB        24.7290   46.7260   36.3580 C.3    26  ASN26       0.1195
     44  CG        24.0140   45.6510   37.0760 C.2    26  ASN26       0.2630
     45  OD1       24.4740   45.1830   38.0920 O.2    26  ASN26      -0.2716
     46  ND2       22.8590   45.2380   36.5310 N.am   26  ASN26      -0.0877
     47  N         27.1820   48.3900   35.5140 N.am   27  ILE27      -0.1963
     48  CA        27.8010   49.4020   34.6520 C.3    27  ILE27       0.1727
     49  C         27.6860   49.0060   33.1940 C.2    27  ILE27       0.2616
     50  O         27.6750   47.7940   32.8730 O.2    27  ILE27      -0.2715
     51  CB        29.3180   49.6530   34.9850 C.3    27  ILE27       0.0290
     52  CG1       30.1430   48.3470   34.9730 C.3    27  ILE27       0.0022
     53  CG2       29.4200   50.4140   36.3340 C.3    27  ILE27       0.0023
     54  CD1       31.6640   48.5770   34.8920 C.3    27  ILE27       0.0001
     55  N         27.6050   50.0180   32.3420 N.am   28  VAL28      -0.1963
     56  CA        27.6730   49.8570   30.8880 C.3    28  VAL28       0.1727
     57  C         28.7170   50.8280   30.3850 C.2    28  VAL28       0.2616
     58  O         29.0530   51.7650   31.0540 O.2    28  VAL28      -0.2715
     59  CB        26.3150   50.1270   30.2040 C.3    28  VAL28       0.0290
     60  CG1       25.3350   49.1660   30.6290 C.3    28  VAL28       0.0023
     61  CG2       25.7960   51.5360   30.4790 C.3    28  VAL28       0.0023
     62  N         29.2790   50.5730   29.2060 N.am   29  GLY29      -0.1955
     63  CA        30.2410   51.4560   28.5900 C.3    29  GLY29       0.1869
     64  C         31.6230   50.8490   28.5960 C.2    29  GLY29       0.2309
     65  O         31.7920   49.6500   28.7980 O.2    29  GLY29      -0.2863
     66  N         33.8410   51.1090   25.9820 N.3    31  GLU31      -0.1245
     67  CA        34.4210   50.8960   24.6440 C.3    31  GLU31       0.1567
     68  C         35.0500   52.1630   24.1040 C.2    31  GLU31       0.2260
     69  O         34.4160   53.2040   24.0450 O.2    31  GLU31      -0.2867
     70  CB        33.3770   50.3980   23.6690 C.3    31  GLU31       0.0388
     71  CG        32.9210   48.9820   23.9620 C.3    31  GLU31       0.1160
     72  CD        31.7820   48.5550   23.0380 C.2    31  GLU31       0.3649
     73  OE1       31.7640   48.9910   21.8540 O.co2  31  GLU31      -0.2457
     74  OE2       30.8750   47.8150   23.5090 O.co2  31  GLU31      -0.2457
     75  N         23.9810   51.7330   35.1240 N.3    39  SER39      -0.1202
     76  CA        22.7640   51.3810   34.3770 C.3    39  SER39       0.2020
     77  C         21.5970   50.8570   35.2220 C.2    39  SER39       0.2618
     78  O         20.4530   50.7740   34.7110 O.2    39  SER39      -0.2717
     79  CB        23.0740   50.3290   33.3270 C.3    39  SER39       0.2103
     80  OG        23.6160   49.1710   33.9280 O.3    39  SER39      -0.2182
     81  N         21.9300   50.3090   36.3730 N.am   40  PHE40      -0.1975
     82  CA        20.9560   49.6320   37.2710 C.3    40  PHE40       0.1639
     83  C         21.5040   49.7120   38.6540 C.2    40  PHE40       0.2290
     84  O         22.6830   49.4330   38.8810 O.2    40  PHE40      -0.2864
     85  CB        20.7780   48.1810   36.8590 C.3    40  PHE40       0.0560
     86  CG        19.8700   47.3770   37.7110 C.ar   40  PHE40      -0.0200
     87  CD1       20.3640   46.7190   38.8010 C.ar   40  PHE40      -0.0042
     88  CD2       18.5260   47.2510   37.3900 C.ar   40  PHE40      -0.0042
     89  CE1       19.5530   45.9550   39.5700 C.ar   40  PHE40      -0.0003
     90  CE2       17.6850   46.4910   38.1870 C.ar   40  PHE40      -0.0003
     91  CZ        18.1990   45.8400   39.2550 C.ar   40  PHE40      -0.0000
     92  N         20.6010   48.0920   42.3970 N.3    42  LEU42      -0.1245
     93  CA        19.8440   47.0750   43.0980 C.3    42  LEU42       0.1561
     94  C         19.1470   47.6480   44.3150 C.2    42  LEU42       0.2260
     95  O         19.7750   48.2510   45.1750 O.2    42  LEU42      -0.2867
     96  CB        20.7720   45.9530   43.5260 C.3    42  LEU42       0.0270
     97  CG        20.1000   44.7450   44.1670 C.3    42  LEU42       0.0019
     98  CD1       19.2190   43.9890   43.2380 C.3    42  LEU42       0.0001
     99  CD2       21.1330   43.8010   44.7260 C.3    42  LEU42       0.0001
    100  N         35.6950   48.4540   29.9430 N.3    72  HIS72      -0.1226
    101  CA        34.6420   47.8600   30.7370 C.3    72  HIS72       0.1752
    102  C         35.2020   46.8920   31.7840 C.2    72  HIS72       0.2595
    103  O         34.8850   46.9980   32.9740 O.2    72  HIS72      -0.2718
    104  CB        33.6170   47.1300   29.8320 C.3    72  HIS72       0.0759
    105  CG        32.4300   46.6620   30.5840 C.ar   72  HIS72       0.0818
    106  ND1       31.3020   47.4350   30.7360 N.ar   72  HIS72      -0.2268
    107  CD2       32.2080   45.5210   31.2720 C.ar   72  HIS72       0.1154
    108  CE1       30.4330   46.7840   31.4950 C.ar   72  HIS72       0.1986
    109  NE2       30.9640   45.6250   31.8400 N.ar   72  HIS72      -0.2212
    110  N         36.0680   45.9660   31.3690 N.am   73  GLU73      -0.1979
    111  CA        36.5790   44.9780   32.3210 C.3    73  GLU73       0.1602
    112  C         37.4760   45.5990   33.3710 C.2    73  GLU73       0.2287
    113  O         37.4100   45.2030   34.5460 O.2    73  GLU73      -0.2864
    114  CB        37.2930   43.7740   31.6240 C.3    73  GLU73       0.0415
    115  CG        37.4980   42.5900   32.5970 C.3    73  GLU73       0.1163
    116  CD        38.5230   41.5250   32.2180 C.2    73  GLU73       0.3649
    117  OE1       39.1550   41.6140   31.1560 O.co2  73  GLU73      -0.2457
    118  OE2       38.6880   40.5820   33.0370 O.co2  73  GLU73      -0.2457
    119  N         35.3150   47.3530   35.9620 N.3    76  ALA76      -0.1245
    120  CA        34.7020   46.3600   36.8450 C.3    76  ALA76       0.1562
    121  C         35.7360   45.8390   37.8760 C.2    76  ALA76       0.2260
    122  O         35.4430   45.7280   39.0760 O.2    76  ALA76      -0.2867
    123  CB        34.0790   45.2380   35.9900 C.3    76  ALA76       0.0290
    124  N         36.4060   48.5500   40.5060 N.3    79  LEU79      -0.1231
    125  CA        35.3040   48.6050   41.4670 C.3    79  LEU79       0.1693
    126  C         35.2960   47.4470   42.4380 C.2    79  LEU79       0.2591
    127  O         35.1530   47.6540   43.6320 O.2    79  LEU79      -0.2718
    128  CB        33.9580   48.7650   40.7310 C.3    79  LEU79       0.0284
    129  CG        33.7600   50.1510   40.0560 C.3    79  LEU79       0.0019
    130  CD1       32.7310   50.0320   38.9310 C.3    79  LEU79       0.0001
    131  CD2       33.3260   51.1970   41.0700 C.3    79  LEU79       0.0001
    132  N         35.4340   46.2440   41.9310 N.am   80  LYS80      -0.1980
    133  CA        35.3790   45.0470   42.7950 C.3    80  LYS80       0.1596
    134  C         36.5540   44.9330   43.7280 C.2    80  LYS80       0.2287
    135  O         36.4140   44.3400   44.7890 O.2    80  LYS80      -0.2864
    136  CB        35.2610   43.7890   41.9470 C.3    80  LYS80       0.0298
    137  CG        33.9360   43.6790   41.2390 C.3    80  LYS80       0.0038
    138  CD        33.9620   42.4910   40.3120 C.3    80  LYS80       0.0206
    139  CE        32.6450   42.2890   39.6380 C.3    80  LYS80       0.1093
    140  NZ        32.7120   41.0790   38.7590 N.3    80  LYS80      -0.1314
@<TRIPOS>BOND
     1    73    72   ar
     2    72    74   ar
     3    72    71    1
     4    70    71    1
     5    70    67    1
     6    69    68    2
     7    68    67    1
     8    67    66    1
     9    63    64    1
    10    63    62    1
    11    64    65    2
    12    62    57   am
    13   104   105    1
    14   104   101    1
    15   100   101    1
    16    59    61    1
    17    59    60    1
    18    59    56    1
    19    57    56    1
    20    57    58    2
    21   105   106   ar
    22   105   107   ar
    23   106   108   ar
    24   101   102    1
    25    56    55    1
    26   117   116   ar
    27   107   109   ar
    28   110   102   am
    29   110   111    1
    30   108   109   ar
    31   114   111    1
    32   114   115    1
    33   102   103    2
    34   116   115    1
    35   116   118   ar
    36   111   112    1
    37    55    49   am
    38    50    49    2
    39    49    48    1
    40    79    80    1
    41    79    76    1
    42   112   113    2
    43    76    75    1
    44    76    77    1
    45    48    51    1
    46    48    47    1
    47    78    77    2
    48    54    52    1
    49    52    51    1
    50    51    53    1
    51    77    81   am
    52    47    41   am
    53   119   120    1
    54   123   120    1
    55    43    44    1
    56    43    40    1
    57    81    82    1
    58    41    42    2
    59    41    40    1
    60    46    44   am
    61   120   121    1
    62    85    82    1
    63    85    86    1
    64    44    45    2
    65    40    39    1
    66    82    83    1
    67    88    86   ar
    68    88    90   ar
    69    86    87   ar
    70   121   122    2
    71    90    91   ar
    72    39    30   am
    73    83    84    2
    74   140   139    1
    75    87    89   ar
    76   130   129    1
    77    91    89   ar
    78   139   138    1
    79    30    31    2
    80    30    29    1
    81    34    36   ar
    82    34    33   ar
    83    36    38   ar
    84   129   128    1
    85   129   131    1
    86   138   137    1
    87   124   125    1
    88   128   125    1
    89    29    32    1
    90    29    28    1
    91    32    33    1
    92    33    35   ar
    93    38    37   ar
    94   137   136    1
    95   125   126    1
    96   132   126   am
    97   132   133    1
    98   136   133    1
    99    28    26   am
   100    35    37   ar
   101    92    93    1
   102   126   127    2
   103   133   134    1
   104    26    27    2
   105    26    25    1
   106    93    96    1
   107    93    94    1
   108    98    97    1
   109    96    97    1
   110   134   135    2
   111    22    21    1
   112    97    99    1
   113    25    24    1
   114    94    95    2
   115    24    18   am
   116    20    21    1
   117    20    17    1
   118    21    23    1
   119    18    17    1
   120    18    19    2
   121    16    17    1
   122    16    14   am
   123    13    14    1
   124    13    12    1
   125    14    15    2
   126    11     9    1
   127    10     9    1
   128     9     8    2
   129     8     7    1
   130     6     7    1
   131     6     5    1
   132     5     2    1
   133     2     1    1
   134     2     3    1
   135     4     3    2
