@<TRIPOS>MOLECULE
tmp/1tp7A00.pdb
 95 92 0 0 0
SMALL
GASTEIGER

@<TRIPOS>ATOM
      1  N        -27.5330  -33.2210   -4.3630 N.3   219  PRO219     -0.2102
      2  CA       -26.7330  -34.2260   -5.0740 C.3   219  PRO219      0.1504
      3  C        -27.3300  -34.5510   -6.4360 C.2   219  PRO219      0.2575
      4  O        -26.6070  -34.7680   -7.4030 O.2   219  PRO219     -0.2718
      5  CB       -26.7560  -35.4140   -4.1190 C.3   219  PRO219      0.0282
      6  CG       -26.7900  -34.7240   -2.7730 C.3   219  PRO219      0.0208
      7  CD       -27.8420  -33.6670   -2.9910 C.3   219  PRO219      0.0893
      8  N        -28.6530  -34.5810   -6.5170 N.am  220  LEU220     -0.1980
      9  CA       -29.2820  -34.8600   -7.8010 C.3   220  LEU220      0.1596
     10  C        -29.1450  -33.6500   -8.7400 C.2   220  LEU220      0.2287
     11  O        -28.9200  -33.8190   -9.9240 O.2   220  LEU220     -0.2864
     12  CB       -30.7520  -35.2150   -7.6030 C.3   220  LEU220      0.0297
     13  CG       -31.0230  -36.2180   -6.4690 C.3   220  LEU220      0.0022
     14  CD1      -32.5110  -36.5600   -6.4580 C.3   220  LEU220      0.0001
     15  CD2      -30.1790  -37.4930   -6.6480 C.3   220  LEU220      0.0001
     16  N        -17.8970  -31.3090   -7.3260 N.3   226  ILE226     -0.1245
     17  CA       -18.6520  -30.3570   -6.5380 C.3   226  ILE226      0.1561
     18  C        -17.6470  -29.3760   -5.9560 C.2   226  ILE226      0.2260
     19  O        -16.6560  -29.7780   -5.3460 O.2   226  ILE226     -0.2867
     20  CB       -19.4160  -31.0290   -5.3830 C.3   226  ILE226      0.0252
     21  CG1      -20.1400  -29.9620   -4.5630 C.3   226  ILE226      0.0019
     22  CG2      -18.4610  -31.7880   -4.4800 C.3   226  ILE226      0.0019
     23  CD1      -20.9460  -30.5170   -3.4460 C.3   226  ILE226      0.0001
     24  N        -15.7130  -33.1410   -1.5800 N.3   358  ASP358     -0.1225
     25  CA       -16.7260  -34.1420   -1.8830 C.3   358  ASP358      0.1805
     26  C        -17.8430  -33.9120   -0.8740 C.2   358  ASP358      0.2598
     27  O        -17.6490  -33.2090    0.1170 O.2   358  ASP358     -0.2718
     28  CB       -16.1550  -35.5570   -1.7240 C.3   358  ASP358      0.1424
     29  CG       -15.8780  -35.9180   -0.2720 C.2   358  ASP358      0.3668
     30  OD1      -15.0600  -35.2340    0.3830 O.co2 358  ASP358     -0.2456
     31  OD2      -16.4870  -36.8920    0.2150 O.co2 358  ASP358     -0.2456
     32  N        -19.0060  -34.5000   -1.1160 N.am  359  TYR359     -0.1962
     33  CA       -20.1160  -34.3310   -0.1940 C.3   359  TYR359      0.1771
     34  C        -19.7700  -34.7680    1.2150 C.2   359  TYR359      0.2620
     35  O        -20.5440  -34.5600    2.1520 O.2   359  TYR359     -0.2715
     36  CB       -21.3530  -35.0780   -0.6830 C.3   359  TYR359      0.0574
     37  CG       -21.9990  -34.3970   -1.8560 C.ar  359  TYR359     -0.0198
     38  CD1      -21.7000  -34.7740   -3.1590 C.ar  359  TYR359     -0.0009
     39  CD2      -22.8770  -33.3450   -1.6640 C.ar  359  TYR359     -0.0009
     40  CE1      -22.2650  -34.1200   -4.2370 C.ar  359  TYR359      0.0417
     41  CE2      -23.4420  -32.6840   -2.7310 C.ar  359  TYR359      0.0417
     42  CZ       -23.1370  -33.0740   -4.0170 C.ar  359  TYR359      0.1957
     43  OH       -23.7080  -32.4130   -5.0780 O.3   359  TYR359     -0.2866
     44  N        -18.5910  -35.3610    1.3690 N.am  360  GLY360     -0.1954
     45  CA       -18.1580  -35.8030    2.6800 C.3   360  GLY360      0.1869
     46  C        -17.6130  -34.6630    3.5150 C.2   360  GLY360      0.2309
     47  O        -17.7830  -34.6610    4.7290 O.2   360  GLY360     -0.2863
     48  N        -22.8810  -32.4300    5.0470 N.3   369  PHE369     -0.1227
     49  CA       -23.7650  -33.4390    4.4750 C.3   369  PHE369      0.1736
     50  C        -23.4670  -34.8400    5.0080 C.2   369  PHE369      0.2595
     51  O        -22.3120  -35.2810    5.0530 O.2   369  PHE369     -0.2718
     52  CB       -23.6230  -33.4720    2.9640 C.3   369  PHE369      0.0547
     53  CG       -24.0980  -32.2420    2.2830 C.ar  369  PHE369     -0.0202
     54  CD1      -23.4020  -31.0540    2.4020 C.ar  369  PHE369     -0.0042
     55  CD2      -25.2160  -32.2830    1.4770 C.ar  369  PHE369     -0.0042
     56  CE1      -23.8040  -29.9320    1.7230 C.ar  369  PHE369     -0.0003
     57  CE2      -25.6290  -31.1610    0.7910 C.ar  369  PHE369     -0.0003
     58  CZ       -24.9170  -29.9800    0.9130 C.ar  369  PHE369     -0.0000
     59  N        -24.5260  -35.5550    5.3580 N.am  370  ARG370     -0.1966
     60  CA       -24.3830  -36.8740    5.9200 C.3   370  ARG370      0.1729
     61  C        -25.5720  -37.7500    5.5780 C.2   370  ARG370      0.2616
     62  O        -26.7160  -37.4150    5.9060 O.2   370  ARG370     -0.2715
     63  CB       -24.2400  -36.7470    7.4380 C.3   370  ARG370      0.0348
     64  CG       -24.3270  -38.0380    8.2160 C.3   370  ARG370      0.0492
     65  CD       -24.9570  -37.7880    9.5850 C.3   370  ARG370      0.2205
     66  NE       -25.5900  -38.9990   10.1020 N.pl3 370  ARG370     -0.0865
     67  CZ       -26.7120  -39.0110   10.8130 C.cat 370  ARG370      0.5346
     68  NH1      -27.3320  -37.8800   11.0950 N.pl3 370  ARG370      0.1354
     69  NH2      -27.2210  -40.1550   11.2400 N.pl3 370  ARG370      0.1354
     70  N        -25.2970  -38.8700    4.9100 N.am  371  GLN371     -0.1977
     71  CA       -26.3390  -39.8250    4.5220 C.3   371  GLN371      0.1601
     72  C        -27.0690  -40.3570    5.7380 C.2   371  GLN371      0.2287
     73  O        -26.4670  -40.5540    6.7910 O.2   371  GLN371     -0.2864
     74  CB       -25.7340  -41.0120    3.7680 C.3   371  GLN371      0.0394
     75  CG       -25.2350  -40.6890    2.3890 C.3   371  GLN371      0.0908
     76  CD       -24.5930  -41.8830    1.6880 C.2   371  GLN371      0.2608
     77  OE1      -24.1550  -41.7720    0.5430 O.2   371  GLN371     -0.2717
     78  NE2      -24.5370  -43.0240    2.3680 N.am  371  GLN371     -0.0878
     79  N        -30.3580  -44.2920    2.6580 N.3   376  LYS376     -0.1245
     80  CA       -29.1570  -43.6550    2.1420 C.3   376  LYS376      0.1561
     81  C        -29.3990  -42.5110    1.1620 C.2   376  LYS376      0.2260
     82  O        -28.5180  -41.6730    0.9460 O.2   376  LYS376     -0.2867
     83  CB       -28.2770  -44.7150    1.4900 C.3   376  LYS376      0.0271
     84  CG       -27.9250  -45.8380    2.4420 C.3   376  LYS376      0.0035
     85  CD       -27.0440  -45.3390    3.5760 C.3   376  LYS376      0.0206
     86  CE       -26.6740  -46.4840    4.5090 C.3   376  LYS376      0.1093
     87  NZ       -25.6080  -46.0930    5.4780 N.3   376  LYS376     -0.1314
     88  N        -30.5870  -37.0310    2.7340 N.3   379  ILE379     -0.1245
     89  CA       -29.3950  -36.3630    3.2310 C.3   379  ILE379      0.1561
     90  C        -29.5940  -35.4780    4.4460 C.2   379  ILE379      0.2260
     91  O        -30.3380  -34.5050    4.4130 O.2   379  ILE379     -0.2867
     92  CB       -28.7350  -35.4980    2.1400 C.3   379  ILE379      0.0252
     93  CG1      -28.5170  -36.3210    0.8780 C.3   379  ILE379      0.0019
     94  CG2      -27.3900  -34.9880    2.6370 C.3   379  ILE379      0.0019
     95  CD1      -27.5720  -37.4850    1.0940 C.3   379  ILE379      0.0001
@<TRIPOS>BOND
     1    11    10    2
     2    10     9    1
     3     9    12    1
     4     9     8    1
     5    12    13    1
     6     4     3    2
     7    16    17    1
     8    15    13    1
     9    17    18    1
    10    17    20    1
    11     8     3   am
    12    13    14    1
    13     3     2    1
    14    18    19    2
    15    20    21    1
    16    20    22    1
    17    43    42    1
    18     2     1    1
    19     2     5    1
    20    21    23    1
    21     1     7    1
    22    40    42   ar
    23    40    38   ar
    24     5     6    1
    25    42    41   ar
    26    38    37   ar
    27     7     6    1
    28    41    39   ar
    29    25    28    1
    30    25    24    1
    31    25    26    1
    32    37    39   ar
    33    37    36    1
    34    28    29    1
    35    32    26   am
    36    32    33    1
    37    26    27    2
    38    36    33    1
    39    29    31   ar
    40    29    30   ar
    41    33    34    1
    42    77    76    2
    43    57    58   ar
    44    57    55   ar
    45    93    95    1
    46    93    92    1
    47    58    56   ar
    48    82    81    2
    49    81    80    1
    50    34    44   am
    51    34    35    2
    52    44    45    1
    53    55    53   ar
    54    83    80    1
    55    83    84    1
    56    76    78   am
    57    76    75    1
    58    56    54   ar
    59    92    94    1
    60    92    89    1
    61    80    79    1
    62    53    54   ar
    63    53    52    1
    64    75    74    1
    65    84    85    1
    66    45    46    1
    67    88    89    1
    68    52    49    1
    69    89    90    1
    70    46    47    2
    71    85    86    1
    72    74    71    1
    73    91    90    2
    74    49    50    1
    75    49    48    1
    76    86    87    1
    77    71    70    1
    78    71    72    1
    79    70    61   am
    80    50    51    2
    81    50    59   am
    82    59    60    1
    83    61    62    2
    84    61    60    1
    85    72    73    2
    86    60    63    1
    87    63    64    1
    88    64    65    1
    89    65    66    1
    90    66    67    2
    91    67    68    1
    92    67    69    1
