@<TRIPOS>MOLECULE
tmp/1tppA00.pdb
 145 144 0 0 0
SMALL
GASTEIGER

@<TRIPOS>ATOM
      1  N         -3.6160   14.5820   31.4030 N.3    24  PHE24      -0.1227
      2  CA        -3.0570   15.4820   30.3790 C.3    24  PHE24       0.1736
      3  C         -2.2390   14.7750   29.2930 C.2    24  PHE24       0.2595
      4  O         -1.9760   15.4490   28.2720 O.2    24  PHE24      -0.2718
      5  CB        -2.2940   16.7000   30.9710 C.3    24  PHE24       0.0547
      6  CG        -0.9920   16.3400   31.7190 C.ar   24  PHE24      -0.0202
      7  CD1        0.1800   16.3560   30.9950 C.ar   24  PHE24      -0.0042
      8  CD2       -0.9820   15.9070   33.0370 C.ar   24  PHE24      -0.0042
      9  CE1        1.3650   15.9550   31.5500 C.ar   24  PHE24      -0.0003
     10  CE2        0.2380   15.4760   33.6140 C.ar   24  PHE24      -0.0003
     11  CZ         1.4030   15.4940   32.8740 C.ar   24  PHE24      -0.0000
     12  N         -1.7890   13.5440   29.4880 N.am   25  CYS25      -0.1970
     13  CA        -0.9580   12.9310   28.4310 C.3    25  CYS25       0.1712
     14  C         -0.8630   11.4650   28.8190 C.2    25  CYS25       0.2296
     15  O         -1.2120   11.1720   29.9830 O.2    25  CYS25      -0.2864
     16  CB         0.4870   13.5610   28.4940 C.3    25  CYS25       0.0983
     17  SG         0.8890   14.8830   27.3710 S.3    25  CYS25      -0.0798
     18  N          7.2870   16.8930   25.1140 N.3    40  HIS40      -0.1241
     19  CA         6.3270   18.0180   25.2110 C.3    40  HIS40       0.1621
     20  C          5.1790   17.8540   26.2230 C.2    40  HIS40       0.2264
     21  O          4.4780   18.8400   26.4960 O.2    40  HIS40      -0.2867
     22  CB         5.7710   18.3290   23.7900 C.3    40  HIS40       0.0745
     23  CG         4.5820   17.4190   23.3400 C.ar   40  HIS40       0.0817
     24  ND1        4.7420   16.2970   22.5470 N.ar   40  HIS40      -0.2268
     25  CD2        3.2580   17.5160   23.6100 C.ar   40  HIS40       0.1154
     26  CE1        3.5200   15.6880   22.3800 C.ar   40  HIS40       0.1986
     27  NE2        2.5830   16.4110   23.0280 N.ar   40  HIS40      -0.2212
     28  N         -6.9600    8.5670   13.4690 N.3   171  ASP171     -0.1225
     29  CA        -5.6500    9.1160   13.8740 C.3   171  ASP171      0.1805
     30  C         -5.5640    9.0580   15.4080 C.2   171  ASP171      0.2598
     31  O         -6.6150    9.1070   16.0600 O.2   171  ASP171     -0.2718
     32  CB        -5.6130   10.6170   13.3640 C.3   171  ASP171      0.1424
     33  CG        -4.2340   11.2770   13.3350 C.2   171  ASP171      0.3668
     34  OD1       -4.1880   12.4700   12.9450 O.co2 171  ASP171     -0.2456
     35  OD2       -3.1810   10.7270   13.7100 O.co2 171  ASP171     -0.2456
     36  N         -4.4610    9.4090   15.9460 N.am  172  SER172     -0.1938
     37  CA        -4.4200    9.9300   17.3540 C.3   172  SER172      0.2055
     38  C         -4.6450   11.4390   17.3630 C.2   172  SER172      0.2643
     39  O         -4.9490   12.0990   16.3220 O.2   172  SER172     -0.2714
     40  CB        -3.0980    9.5150   17.9920 C.3   172  SER172      0.2130
     41  OG        -2.0050   10.0460   17.2380 O.3   172  SER172     -0.2179
     42  N         -4.8490   11.9470   18.5520 N.am  173  CYS173     -0.1953
     43  CA        -5.3910   13.3130   18.7640 C.3   173  CYS173      0.1843
     44  C         -4.9430   13.9400   20.1050 C.2   173  CYS173      0.2625
     45  O         -4.0230   13.4110   20.7510 O.2   173  CYS173     -0.2714
     46  CB        -6.9270   13.3380   18.5140 C.3   173  CYS173      0.0997
     47  SG        -7.5950   14.9730   18.0170 S.3   173  CYS173     -0.0797
     48  N         -5.3080   15.1610   20.3460 N.am  174  GLN174     -0.1963
     49  CA        -4.8880   15.9160   21.5030 C.3   174  GLN174      0.1733
     50  C         -5.3170   15.0920   22.7230 C.2   174  GLN174      0.2616
     51  O         -6.4780   14.5860   22.7620 O.2   174  GLN174     -0.2715
     52  CB        -5.6490   17.2650   21.5870 C.3   174  GLN174      0.0408
     53  CG        -5.4390   18.0190   20.2510 C.3   174  GLN174      0.0908
     54  CD        -6.7880   18.1500   19.5300 C.2   174  GLN174      0.2608
     55  OE1       -6.8160   18.5000   18.3230 O.2   174  GLN174     -0.2717
     56  NE2       -7.8120   18.2880   20.3490 N.am  174  GLN174     -0.0878
     57  N         -4.3950   15.0180   23.6750 N.am  175  GLY175     -0.1955
     58  CA        -4.5950   14.1810   24.8520 C.3   175  GLY175      0.1869
     59  C         -4.0030   12.7990   24.7560 C.2   175  GLY175      0.2309
     60  O         -4.1050   12.0260   25.7530 O.2   175  GLY175     -0.2863
     61  N         -1.2190   12.3150   23.3180 N.3   177  SER177     -0.1217
     62  CA         0.2730   12.6330   23.2840 C.3   177  SER177      0.1889
     63  C          1.0700   11.9390   24.4070 C.2   177  SER177      0.2288
     64  O          0.5260   11.8740   25.5380 O.2   177  SER177     -0.2866
     65  CB         0.5090   14.1390   23.6210 C.3   177  SER177      0.2089
     66  OG         0.3410   14.9470   22.4100 O.3   177  SER177     -0.2183
     67  N          3.2180    8.8580   20.7110 N.3   191  VAL191     -0.1231
     68  CA         2.3540    9.9390   20.1170 C.3   191  VAL191      0.1692
     69  C          2.9300   11.3360   20.3190 C.2   191  VAL191      0.2593
     70  O          3.2470   11.7830   21.4830 O.2   191  VAL191     -0.2718
     71  CB         0.9430    9.8710   20.7420 C.3   191  VAL191      0.0266
     72  CG1        0.0450   10.9220   20.0860 C.3   191  VAL191      0.0020
     73  CG2        0.3150    8.4430   20.6590 C.3   191  VAL191      0.0020
     74  N          3.3820   11.9540   19.2250 N.am  192  SER192     -0.1938
     75  CA         4.1930   13.2180   19.2350 C.3   192  SER192      0.2055
     76  C          3.4080   14.3850   18.6450 C.2   192  SER192      0.2643
     77  O          3.0830   15.3580   19.3710 O.2   192  SER192     -0.2714
     78  CB         5.5980   13.0580   18.5940 C.3   192  SER192      0.2130
     79  OG         6.2800   14.3210   18.7460 O.3   192  SER192     -0.2179
     80  N          3.1430   14.4170   17.3610 N.am  193  TRP193     -0.1959
     81  CA         2.4500   15.5900   16.7890 C.3   193  TRP193      0.1771
     82  C          1.6510   15.2880   15.5150 C.2   193  TRP193      0.2620
     83  O          1.6490   14.1630   14.9550 O.2   193  TRP193     -0.2715
     84  CB         3.4350   16.7540   16.5060 C.3   193  TRP193      0.0590
     85  CG         4.5960   16.4350   15.5120 C.ar  193  TRP193      0.0006
     86  CD1        5.7890   15.8370   15.7880 C.ar  193  TRP193      0.0946
     87  CD2        4.6970   16.8430   14.1590 C.ar  193  TRP193      0.0152
     88  NE1        6.6200   15.8450   14.6200 N.ar  193  TRP193     -0.2442
     89  CE2        5.9960   16.5070   13.7230 C.ar  193  TRP193      0.0810
     90  CE3        3.7720   17.4900   13.3330 C.ar  193  TRP193      0.0012
     91  CZ2        6.4710   16.8220   12.4520 C.ar  193  TRP193      0.0191
     92  CZ3        4.2470   17.8270   12.0380 C.ar  193  TRP193      0.0001
     93  CH2        5.5620   17.5180   11.6220 C.ar  193  TRP193      0.0015
     94  N          0.9900   16.2900   14.9890 N.am  194  GLY194     -0.1940
     95  CA         0.2280   16.0590   13.7440 C.3   194  GLY194      0.2014
     96  C         -0.2980   17.4110   13.3000 C.2   194  GLY194      0.2640
     97  O         -0.1890   18.3660   14.1010 O.2   194  GLY194     -0.2714
     98  N         -0.9060   17.5090   12.1630 N.am  195  SER195     -0.1935
     99  CA        -1.5280   18.7720   11.7890 C.3   195  SER195      0.2055
    100  C         -3.0320   18.6340   12.0020 C.2   195  SER195      0.2644
    101  O         -3.6970   17.8790   11.2570 O.2   195  SER195     -0.2714
    102  CB        -1.1540   19.2390   10.3380 C.3   195  SER195      0.2130
    103  OG        -1.6990   20.5740   10.2770 O.3   195  SER195     -0.2179
    104  N         -3.5080   19.1550   13.0990 N.am  196  GLY196     -0.1939
    105  CA        -4.9230   18.8060   13.4140 C.3   196  GLY196      0.2014
    106  C         -5.0450   17.3150   13.7930 C.2   196  GLY196      0.2639
    107  O         -4.0140   16.6770   14.0890 O.2   196  GLY196     -0.2714
    108  N         -6.1580   16.7050   13.5700 N.am  197  CYS197     -0.1967
    109  CA        -6.3330   15.2340   13.6880 C.3   197  CYS197      0.1712
    110  C         -7.1790   14.6680   12.5670 C.2   197  CYS197      0.2296
    111  O         -8.2980   15.1780   12.3280 O.2   197  CYS197     -0.2864
    112  CB        -7.0490   14.8650   15.0090 C.3   197  CYS197      0.0983
    113  SG        -6.3740   15.6950   16.5220 S.3   197  CYS197     -0.0798
    114  N         -2.6130   14.3080    6.2350 N.3   202  LYS202     -0.1245
    115  CA        -1.8990   14.7830    7.4630 C.3   202  LYS202      0.1561
    116  C         -1.9070   13.6840    8.5300 C.2   202  LYS202      0.2260
    117  O         -2.6510   13.8250    9.5200 O.2   202  LYS202     -0.2867
    118  CB        -2.6680   16.0240    7.9710 C.3   202  LYS202      0.0271
    119  CG        -2.4650   17.1930    6.9710 C.3   202  LYS202      0.0035
    120  CD        -0.9920   17.6510    7.0060 C.3   202  LYS202      0.0206
    121  CE        -0.7490   18.7520    5.9450 C.3   202  LYS202      0.1093
    122  NZ         0.6720   19.1110    5.8850 N.3   202  LYS202     -0.1314
    123  N         -0.5500   10.9510   11.5750 N.3   204  GLY204     -0.1210
    124  CA         0.1540   11.2810   12.8100 C.3   204  GLY204      0.1956
    125  C          1.6380   11.0970   12.6840 C.2   204  GLY204      0.2612
    126  O          2.0310   10.1650   11.9420 O.2   204  GLY204     -0.2717
    127  N          2.4140   11.8940   13.4170 N.am  205  VAL205     -0.1965
    128  CA         3.8710   11.8430   13.5190 C.3   205  VAL205      0.1727
    129  C          4.3160   11.4070   14.9500 C.2   205  VAL205      0.2616
    130  O          3.6050   11.7620   15.9060 O.2   205  VAL205     -0.2715
    131  CB         4.5800   13.1670   13.0760 C.3   205  VAL205      0.0290
    132  CG1        6.1440   12.9290   13.0390 C.3   205  VAL205      0.0023
    133  CG2        3.9670   13.5880   11.6980 C.3   205  VAL205      0.0023
    134  N          5.1970   10.4410   15.0460 N.am  206  TYR206     -0.1974
    135  CA         5.4620    9.5950   16.2240 C.3   206  TYR206      0.1639
    136  C          6.9610    9.5460   16.4810 C.2   206  TYR206      0.2290
    137  O          7.8030    9.5590   15.5310 O.2   206  TYR206     -0.2864
    138  CB         5.0020    8.1330   15.9500 C.3   206  TYR206      0.0560
    139  CG         3.4770    8.0980   15.8570 C.ar  206  TYR206     -0.0198
    140  CD1        2.7290    8.0900   17.0080 C.ar  206  TYR206     -0.0009
    141  CD2        2.8230    8.2580   14.6100 C.ar  206  TYR206     -0.0009
    142  CE1        1.3590    8.1070   16.9570 C.ar  206  TYR206      0.0417
    143  CE2        1.4170    8.3020   14.5230 C.ar  206  TYR206      0.0417
    144  CZ         0.6950    8.2000   15.7060 C.ar  206  TYR206      0.1957
    145  OH        -0.6960    8.2320   15.7010 O.3   206  TYR206     -0.2866
@<TRIPOS>BOND
     1   122   121    1
     2   121   120    1
     3   114   115    1
     4   119   120    1
     5   119   118    1
     6   115   118    1
     7   115   116    1
     8   116   117    2
     9   103   102    1
    10   102    99    1
    11   101   100    2
    12   123   124    1
    13    93    92   ar
    14    93    91   ar
    15   133   131    1
    16    99   100    1
    17    99    98    1
    18   126   125    2
    19   100   104   am
    20    92    90   ar
    21    98    96   am
    22   111   110    2
    23    91    89   ar
    24   110   109    1
    25   125   124    1
    26   125   127   am
    27    34    33   ar
    28   132   131    1
    29   131   128    1
    30   104   105    1
    31    96    95    1
    32    96    97    2
    33    90    87   ar
    34    33    32    1
    35    33    35   ar
    36    32    29    1
    37   105   106    1
    38   127   128    1
    39    28    29    1
    40   128   129    1
    41   108   109    1
    42   108   106   am
    43   109   112    1
    44    89    87   ar
    45    89    88   ar
    46    95    94    1
    47   106   107    2
    48    29    30    1
    49    87    85   ar
    50   143   141   ar
    51   143   144   ar
    52   141   139   ar
    53    88    86   ar
    54   129   134   am
    55   129   130    2
    56    83    82    2
    57    94    82   am
    58   112   113    1
    59   134   135    1
    60    30    36   am
    61    30    31    2
    62    85    86   ar
    63    85    84    1
    64    82    81    1
    65   137   136    2
    66   145   144    1
    67   144   142   ar
    68   139   138    1
    69   139   140   ar
    70    36    37    1
    71   138   135    1
    72   135   136    1
    73    39    38    2
    74    84    81    1
    75   113    47    1
    76    81    80    1
    77   142   140   ar
    78    41    40    1
    79    37    38    1
    80    37    40    1
    81    80    76   am
    82    38    42   am
    83    47    46    1
    84    55    54    2
    85    46    43    1
    86    42    43    1
    87    78    79    1
    88    78    75    1
    89    76    75    1
    90    76    77    2
    91    43    44    1
    92    74    75    1
    93    74    69   am
    94    54    53    1
    95    54    56   am
    96    72    71    1
    97    44    48   am
    98    44    45    2
    99    68    69    1
   100    68    67    1
   101    68    71    1
   102    53    52    1
   103    69    70    2
   104    48    49    1
   105    73    71    1
   106    49    52    1
   107    49    50    1
   108    26    24   ar
   109    26    27   ar
   110    66    65    1
   111    24    23   ar
   112    50    51    2
   113    50    57   am
   114    27    25   ar
   115    62    61    1
   116    62    65    1
   117    62    63    1
   118    23    25   ar
   119    23    22    1
   120    57    58    1
   121    22    19    1
   122    63    64    2
   123    59    58    1
   124    59    60    2
   125    18    19    1
   126    19    20    1
   127    20    21    2
   128    17    16    1
   129     4     3    2
   130    13    16    1
   131    13    14    1
   132    13    12    1
   133    14    15    2
   134     3    12   am
   135     3     2    1
   136     2     5    1
   137     2     1    1
   138     5     6    1
   139     7     9   ar
   140     7     6   ar
   141     9    11   ar
   142     6     8   ar
   143    11    10   ar
   144     8    10   ar
