@<TRIPOS>MOLECULE
tmp/1tpvB00.pdb
 96 89 0 0 0
SMALL
GASTEIGER

@<TRIPOS>ATOM
      1  N         -9.7500   27.8470   22.7940 N.3     8  ASN8       -0.1240
      2  CA        -8.3410   27.5440   22.6740 C.3     8  ASN8        0.1653
      3  C         -8.2410   26.8280   21.3290 C.2     8  ASN8        0.2266
      4  O         -8.6610   25.6900   21.1670 O.2     8  ASN8       -0.2867
      5  CB        -7.9300   26.6650   23.8780 C.3     8  ASN8        0.1155
      6  CG        -6.4450   26.2460   23.8150 C.2     8  ASN8        0.2627
      7  OD1       -5.6940   26.5600   22.8780 O.2     8  ASN8       -0.2716
      8  ND2       -5.9940   25.5170   24.8230 N.am    8  ASN8       -0.0877
      9  N         -5.6740   25.7180   19.9530 N.3    10  LYS10      -0.1245
     10  CA        -4.5750   24.7360   20.0570 C.3    10  LYS10       0.1561
     11  C         -3.6800   24.7950   18.8290 C.2    10  LYS10       0.2260
     12  O         -3.3800   25.9180   18.4250 O.2    10  LYS10      -0.2867
     13  CB        -5.1710   23.3350   20.2760 C.3    10  LYS10       0.0271
     14  CG        -5.7620   23.2990   21.6640 C.3    10  LYS10       0.0035
     15  CD        -6.3300   21.9350   21.9930 C.3    10  LYS10       0.0206
     16  CE        -6.7410   22.0000   23.4310 C.3    10  LYS10       0.1093
     17  NZ        -7.2040   20.7060   23.9230 N.3    10  LYS10      -0.1314
     18  N         -2.1000   24.2770   30.9800 N.3    92  ASN92      -0.1240
     19  CA        -2.9610   23.4090   30.1870 C.3    92  ASN92       0.1653
     20  C         -2.4680   21.9760   30.2280 C.2    92  ASN92       0.2266
     21  O         -1.2610   21.7450   30.2630 O.2    92  ASN92      -0.2867
     22  CB        -2.9920   23.9800   28.7650 C.3    92  ASN92       0.1155
     23  CG        -3.2500   22.9850   27.6350 C.2    92  ASN92       0.2627
     24  OD1       -2.3080   22.3730   27.1060 O.2    92  ASN92      -0.2716
     25  ND2       -4.5150   22.7680   27.2400 N.am   92  ASN92      -0.0877
     26  N        -10.2660   21.4430   34.0960 N.3   162  GLU162     -0.1245
     27  CA       -10.3710   20.6480   32.9020 C.3   162  GLU162      0.1567
     28  C         -9.9280   19.2330   33.2320 C.2   162  GLU162      0.2260
     29  O         -8.7170   18.9410   33.1860 O.2   162  GLU162     -0.2867
     30  CB        -9.4770   21.1760   31.8250 C.3   162  GLU162      0.0388
     31  CG        -9.6840   22.6010   31.3880 C.3   162  GLU162      0.1160
     32  CD        -8.8230   22.8540   30.1880 C.2   162  GLU162      0.3649
     33  OE1       -7.6050   22.9370   30.3390 O.co2 162  GLU162     -0.2457
     34  OE2       -9.3720   22.9520   29.1040 O.co2 162  GLU162     -0.2457
     35  N        -11.6130   14.2390   30.0480 N.3   166  ALA166     -0.1231
     36  CA       -12.6250   14.9040   29.2530 C.3   166  ALA166      0.1694
     37  C        -12.0240   15.7070   28.1180 C.2   166  ALA166      0.2592
     38  O        -12.7470   16.2220   27.2500 O.2   166  ALA166     -0.2718
     39  CB       -13.4320   15.8210   30.1660 C.3   166  ALA166      0.0304
     40  N        -10.6900   15.8490   28.0300 N.am  167  ILE167     -0.1966
     41  CA       -10.1500   16.6460   26.9430 C.3   167  ILE167      0.1727
     42  C         -9.9340   15.8810   25.6380 C.2   167  ILE167      0.2616
     43  O         -9.1790   14.9090   25.5390 O.2   167  ILE167     -0.2715
     44  CB        -8.8450   17.3100   27.4460 C.3   167  ILE167      0.0290
     45  CG1       -9.2790   18.3740   28.4400 C.3   167  ILE167      0.0022
     46  CG2       -8.0330   17.9640   26.3130 C.3   167  ILE167      0.0023
     47  CD1       -8.2500   18.6320   29.4930 C.3   167  ILE167      0.0001
     48  N        -10.6430   16.3740   24.6200 N.am  168  GLY168     -0.1955
     49  CA       -10.5940   15.8590   23.2850 C.3   168  GLY168      0.1869
     50  C        -11.2540   14.5060   23.1320 C.2   168  GLY168      0.2309
     51  O        -11.3580   14.0710   22.0010 O.2   168  GLY168     -0.2863
     52  N        -13.3300   20.6620   28.7020 N.3   207  GLY207     -0.1210
     53  CA       -13.2570   19.2570   28.4370 C.3   207  GLY207      0.1956
     54  C        -14.4940   18.7760   27.6990 C.2   207  GLY207      0.2613
     55  O        -15.4980   18.3870   28.3160 O.2   207  GLY207     -0.2717
     56  N        -14.4240   18.7920   26.3580 N.am  208  SER208     -0.1938
     57  CA       -15.4690   18.3130   25.4540 C.3   208  SER208      0.2055
     58  C        -16.8030   19.0500   25.6050 C.2   208  SER208      0.2642
     59  O        -17.8820   18.4430   25.6040 O.2   208  SER208     -0.2714
     60  CB       -15.6770   16.7800   25.6410 C.3   208  SER208      0.2130
     61  OG       -14.5280   16.0230   25.2070 O.3   208  SER208     -0.2179
     62  N        -16.7190   20.3900   25.7030 N.am  209  VAL209     -0.1977
     63  CA       -17.8820   21.2590   25.7100 C.3   209  VAL209      0.1596
     64  C        -18.3020   21.4070   24.2460 C.2   209  VAL209      0.2287
     65  O        -17.4950   21.6270   23.3500 O.2   209  VAL209     -0.2864
     66  CB       -17.5410   22.6550   26.2990 C.3   209  VAL209      0.0276
     67  CG1      -18.7860   23.5290   26.3050 C.3   209  VAL209      0.0022
     68  CG2      -17.1510   22.5690   27.7370 C.3   209  VAL209      0.0022
     69  N        -13.8660   26.7080   28.9390 N.3   227  LEU227     -0.1231
     70  CA       -12.6460   26.7880   28.1460 C.3   227  LEU227      0.1693
     71  C        -12.9570   25.7840   27.0340 C.2   227  LEU227      0.2592
     72  O        -13.1550   24.6080   27.2700 O.2   227  LEU227     -0.2718
     73  CB       -11.3850   26.3740   28.9590 C.3   227  LEU227      0.0284
     74  CG       -10.0350   26.7470   28.2180 C.3   227  LEU227      0.0019
     75  CD1      -10.0660   28.1880   27.7030 C.3   227  LEU227      0.0001
     76  CD2       -8.8690   26.6830   29.1880 C.3   227  LEU227      0.0001
     77  N        -13.0700   26.1910   25.7820 N.am  228  VAL228     -0.1966
     78  CA       -13.5490   25.3530   24.7000 C.3   228  VAL228      0.1727
     79  C        -12.3910   25.0380   23.7830 C.2   228  VAL228      0.2617
     80  O        -11.7030   25.9720   23.3670 O.2   228  VAL228     -0.2715
     81  CB       -14.6350   26.0890   23.8800 C.3   228  VAL228      0.0290
     82  CG1      -15.1990   25.1610   22.8030 C.3   228  VAL228      0.0023
     83  CG2      -15.7170   26.5980   24.8140 C.3   228  VAL228      0.0023
     84  N        -12.2190   23.7820   23.3860 N.am  229  GLY229     -0.1940
     85  CA       -11.1260   23.4430   22.4880 C.3   229  GLY229      0.2014
     86  C        -11.6390   23.1670   21.0930 C.2   229  GLY229      0.2639
     87  O        -11.7940   24.0780   20.2770 O.2   229  GLY229     -0.2714
     88  N        -11.9680   21.9070   20.8020 N.am  230  GLY230     -0.1939
     89  CA       -12.3310   21.5010   19.4610 C.3   230  GLY230      0.2014
     90  C        -13.5120   22.2920   18.9040 C.2   230  GLY230      0.2638
     91  O        -13.5080   22.7150   17.7440 O.2   230  GLY230     -0.2714
     92  N        -14.5130   22.5840   19.7410 N.am  231  ALA231     -0.1977
     93  CA       -15.6830   23.3060   19.2280 C.3   231  ALA231      0.1597
     94  C        -15.4720   24.8100   19.0580 C.2   231  ALA231      0.2287
     95  O        -16.3720   25.4740   18.5470 O.2   231  ALA231     -0.2864
     96  CB       -16.8830   23.0730   20.1480 C.3   231  ALA231      0.0319
@<TRIPOS>BOND
     1    91    90    2
     2    12    11    2
     3    95    94    2
     4    11    10    1
     5    90    89    1
     6    90    92   am
     7    94    93    1
     8    93    92    1
     9    93    96    1
    10    89    88    1
    11     9    10    1
    12    10    13    1
    13    13    14    1
    14    87    86    2
    15    88    86   am
    16    86    85    1
    17     4     3    2
    18     3     2    1
    19    14    15    1
    20    15    16    1
    21    51    50    2
    22    85    84    1
    23     2     1    1
    24     2     5    1
    25    82    81    1
    26     7     6    2
    27    50    49    1
    28    49    48    1
    29    65    64    2
    30    80    79    2
    31    84    79   am
    32    16    17    1
    33    79    78    1
    34     6     5    1
    35     6     8   am
    36    81    78    1
    37    81    83    1
    38    64    63    1
    39    48    42   am
    40    78    77    1
    41    61    60    1
    42    57    58    1
    43    57    60    1
    44    57    56    1
    45    43    42    2
    46    59    58    2
    47    58    62   am
    48    42    41    1
    49    62    63    1
    50    63    66    1
    51    77    71   am
    52    66    67    1
    53    66    68    1
    54    46    44    1
    55    56    54   am
    56    41    44    1
    57    41    40    1
    58    71    72    2
    59    71    70    1
    60    24    23    2
    61    25    23   am
    62    38    37    2
    63    44    45    1
    64    23    22    1
    65    54    55    2
    66    54    53    1
    67    75    74    1
    68    40    37   am
    69    37    36    1
    70    70    69    1
    71    70    73    1
    72    74    73    1
    73    74    76    1
    74    53    52    1
    75    45    47    1
    76    22    19    1
    77    34    32   ar
    78    36    35    1
    79    36    39    1
    80    19    20    1
    81    19    18    1
    82    32    33   ar
    83    32    31    1
    84    20    21    2
    85    31    30    1
    86    30    27    1
    87    27    28    1
    88    27    26    1
    89    29    28    2
