@<TRIPOS>MOLECULE
tmp/1tpyA00.pdb
 229 228 0 0 0
SMALL
GASTEIGER

@<TRIPOS>ATOM
      1  N         35.5400   38.3750   43.2870 N.3     5  PRO5       -0.2102
      2  CA        36.3460   37.4470   44.0860 C.3     5  PRO5        0.1504
      3  C         36.7300   37.9220   45.4870 C.2     5  PRO5        0.2575
      4  O         36.9360   39.1160   45.7240 O.2     5  PRO5       -0.2718
      5  CB        37.5630   37.2150   43.1990 C.3     5  PRO5        0.0282
      6  CG        36.9650   37.2430   41.8310 C.3     5  PRO5        0.0208
      7  CD        36.0470   38.4440   41.9040 C.3     5  PRO5        0.0893
      8  N         36.8160   36.9760   46.4170 N.am    6  HIS6       -0.1976
      9  CA        37.2060   37.2890   47.7890 C.3     6  HIS6        0.1656
     10  C         38.7330   37.2470   47.8700 C.2     6  HIS6        0.2291
     11  O         39.3100   36.3680   48.5220 O.2     6  HIS6       -0.2864
     12  CB        36.6030   36.2670   48.7560 C.3     6  HIS6        0.0771
     13  CG        35.1070   36.3030   48.8160 C.ar    6  HIS6        0.0820
     14  ND1       34.3240   35.1870   48.6090 N.ar    6  HIS6       -0.2267
     15  CD2       34.2510   37.3170   49.0870 C.ar    6  HIS6        0.1154
     16  CE1       33.0520   35.5110   48.7540 C.ar    6  HIS6        0.1986
     17  NE2       32.9810   36.7980   49.0450 N.ar    6  HIS6       -0.2212
     18  N         41.3270   34.8710   50.7170 N.3    10  VAL10      -0.1245
     19  CA        42.1460   33.8260   50.1090 C.3    10  VAL10       0.1561
     20  C         43.6250   34.1970   50.1330 C.2    10  VAL10       0.2260
     21  O         44.4740   33.3520   50.4090 O.2    10  VAL10      -0.2867
     22  CB        41.6970   33.5500   48.6520 C.3    10  VAL10       0.0252
     23  CG1       42.5800   32.4810   48.0140 C.3    10  VAL10       0.0019
     24  CG2       40.2400   33.1030   48.6370 C.3    10  VAL10       0.0019
     25  N         47.3820   32.1580   51.1560 N.3    14  TYR14      -0.1241
     26  CA        48.3560   31.8100   50.1230 C.3    14  TYR14       0.1605
     27  C         49.4390   32.8150   49.7770 C.2    14  TYR14       0.2264
     28  O         50.4170   32.4610   49.1180 O.2    14  TYR14      -0.2867
     29  CB        47.6310   31.3820   48.8430 C.3    14  TYR14       0.0534
     30  CG        46.6020   30.3170   49.1080 C.ar   14  TYR14      -0.0201
     31  CD1       45.2710   30.6540   49.3460 C.ar   14  TYR14      -0.0009
     32  CD2       46.9750   28.9800   49.2270 C.ar   14  TYR14      -0.0009
     33  CE1       44.3390   29.6880   49.7030 C.ar   14  TYR14       0.0417
     34  CE2       46.0510   28.0070   49.5850 C.ar   14  TYR14       0.0417
     35  CZ        44.7400   28.3660   49.8230 C.ar   14  TYR14       0.1957
     36  OH        43.8360   27.4090   50.1960 O.3    14  TYR14      -0.2866
     37  N         54.9680   21.8410   45.3060 N.3    29  GLN29      -0.1231
     38  CA        54.1590   22.8320   46.0020 C.3    29  GLN29       0.1698
     39  C         52.6610   22.5680   45.8320 C.2    29  GLN29       0.2593
     40  O         51.8510   23.4980   45.7910 O.2    29  GLN29      -0.2718
     41  CB        54.5010   24.2450   45.5080 C.3    29  GLN29       0.0381
     42  CG        55.9890   24.5710   45.4940 C.3    29  GLN29       0.0905
     43  CD        56.6620   24.3510   46.8390 C.2    29  GLN29       0.2608
     44  OE1       56.2150   24.8650   47.8670 O.2    29  GLN29      -0.2717
     45  NE2       57.7530   23.5860   46.8340 N.am   29  GLN29      -0.0878
     46  N         52.2940   21.2960   45.7130 N.am   30  THR30      -0.1939
     47  CA        50.8890   20.9380   45.6020 C.3    30  THR30       0.2028
     48  C         50.3660   21.1490   47.0170 C.2    30  THR30       0.2642
     49  O         51.0320   20.8080   47.9900 O.2    30  THR30      -0.2714
     50  CB        50.7050   19.4710   45.1720 C.3    30  THR30       0.1808
     51  OG1       51.2460   19.2910   43.8570 O.3    30  THR30      -0.2208
     52  CG2       49.2330   19.1100   45.1550 C.3    30  THR30       0.0379
     53  N         49.1820   21.7310   47.1310 N.am   31  TYR31      -0.1959
     54  CA        48.6250   22.0370   48.4340 C.3    31  TYR31       0.1771
     55  C         47.2020   21.5080   48.5020 C.2    31  TYR31       0.2620
     56  O         46.2390   22.2710   48.5010 O.2    31  TYR31      -0.2715
     57  CB        48.6600   23.5550   48.6200 C.3    31  TYR31       0.0574
     58  CG        48.5450   24.0510   50.0430 C.ar   31  TYR31      -0.0198
     59  CD1       48.5030   25.4170   50.3060 C.ar   31  TYR31      -0.0009
     60  CD2       48.4790   23.1680   51.1210 C.ar   31  TYR31      -0.0009
     61  CE1       48.3980   25.8990   51.5980 C.ar   31  TYR31       0.0417
     62  CE2       48.3740   23.6410   52.4310 C.ar   31  TYR31       0.0417
     63  CZ        48.3350   25.0150   52.6550 C.ar   31  TYR31       0.1957
     64  OH        48.2400   25.5170   53.9300 O.3    31  TYR31      -0.2866
     65  N         47.0920   20.1850   48.5610 N.am   32  SER32      -0.1950
     66  CA        45.8130   19.4960   48.6070 C.3    32  SER32       0.1924
     67  C         46.0750   18.0190   48.9060 C.2    32  SER32       0.2314
     68  O         47.2040   17.5510   48.8050 O.2    32  SER32      -0.2863
     69  CB        45.0940   19.6490   47.2610 C.3    32  SER32       0.2116
     70  OG        45.9630   19.3300   46.1800 O.3    32  SER32      -0.2180
     71  N         42.1980   25.2970   34.9890 N.3    68  ASP68      -0.1225
     72  CA        42.4180   24.8760   36.3680 C.3    68  ASP68       0.1805
     73  C         41.9580   26.0330   37.2500 C.2    68  ASP68       0.2598
     74  O         42.6620   27.0330   37.3780 O.2    68  ASP68      -0.2718
     75  CB        43.9070   24.5780   36.6260 C.3    68  ASP68       0.1424
     76  CG        44.1750   24.1280   38.0660 C.2    68  ASP68       0.3668
     77  OD1       43.2670   24.2650   38.9080 O.co2  68  ASP68      -0.2456
     78  OD2       45.2890   23.6430   38.3680 O.co2  68  ASP68      -0.2456
     79  N         40.7710   25.9040   37.8400 N.am   69  ILE69      -0.1966
     80  CA        40.2330   26.9470   38.7080 C.3    69  ILE69       0.1727
     81  C         40.8230   26.7860   40.1070 C.2    69  ILE69       0.2617
     82  O         40.4730   25.8570   40.8400 O.2    69  ILE69      -0.2715
     83  CB        38.6950   26.8680   38.7640 C.3    69  ILE69       0.0290
     84  CG1       38.1350   26.9800   37.3380 C.3    69  ILE69       0.0022
     85  CG2       38.1320   27.9830   39.6640 C.3    69  ILE69       0.0023
     86  CD1       36.6230   26.8710   37.2520 C.3    69  ILE69       0.0001
     87  N         41.7180   27.7040   40.4670 N.am   70  GLY70      -0.1940
     88  CA        42.3870   27.6430   41.7560 C.3    70  GLY70       0.2014
     89  C         43.6260   26.7830   41.5820 C.2    70  GLY70       0.2639
     90  O         43.8670   25.8540   42.3520 O.2    70  GLY70      -0.2714
     91  N         44.4070   27.1170   40.5560 N.am   71  CYS71      -0.1953
     92  CA        45.6180   26.3920   40.1670 C.3    71  CYS71       0.1843
     93  C         46.7620   26.3220   41.1690 C.2    71  CYS71       0.2626
     94  O         47.7160   25.5710   40.9660 O.2    71  CYS71      -0.2714
     95  CB        46.1570   26.9740   38.8570 C.3    71  CYS71       0.0997
     96  SG        46.6450   28.7130   38.9860 S.3    71  CYS71      -0.0797
     97  N         46.6850   27.1030   42.2360 N.am   72  GLY72      -0.1940
     98  CA        47.7550   27.0730   43.2100 C.3    72  GLY72       0.2014
     99  C         49.0760   27.4470   42.5710 C.2    72  GLY72       0.2638
    100  O         49.1590   28.4480   41.8550 O.2    72  GLY72      -0.2714
    101  N         50.1050   26.6370   42.8150 N.am   73  TRP73      -0.1973
    102  CA        51.4270   26.8990   42.2740 C.3    73  TRP73       0.1640
    103  C         51.7000   26.2500   40.9170 C.2    73  TRP73       0.2290
    104  O         52.8530   26.0900   40.5090 O.2    73  TRP73      -0.2864
    105  CB        52.4910   26.5110   43.3040 C.3    73  TRP73       0.0576
    106  CG        52.6510   27.5440   44.3930 C.ar   73  TRP73       0.0006
    107  CD1       53.3480   28.7150   44.3130 C.ar   73  TRP73       0.0946
    108  CD2       52.0430   27.5300   45.6920 C.ar   73  TRP73       0.0152
    109  NE1       53.2100   29.4340   45.4800 N.ar   73  TRP73      -0.2442
    110  CE2       52.4140   28.7300   46.3420 C.ar   73  TRP73       0.0810
    111  CE3       51.2220   26.6210   46.3700 C.ar   73  TRP73       0.0012
    112  CZ2       51.9900   29.0450   47.6390 C.ar   73  TRP73       0.0191
    113  CZ3       50.8000   26.9330   47.6640 C.ar   73  TRP73       0.0001
    114  CH2       51.1870   28.1380   48.2830 C.ar   73  TRP73       0.0015
    115  N         49.6710   21.0690   38.7470 N.3    76  THR76      -0.1218
    116  CA        48.6430   20.3510   38.0100 C.3    76  THR76       0.1862
    117  C         48.6510   20.7230   36.5300 C.2    76  THR76       0.2287
    118  O         48.6480   19.8440   35.6690 O.2    76  THR76      -0.2866
    119  CB        47.2460   20.6060   38.6100 C.3    76  THR76       0.1770
    120  OG1       47.2200   20.1300   39.9610 O.3    76  THR76      -0.2211
    121  CG2       46.1680   19.8650   37.8010 C.3    76  THR76       0.0375
    122  N         43.5530   29.8670   37.0490 N.3    91  LEU91      -0.1231
    123  CA        43.0150   31.0120   37.7670 C.3    91  LEU91       0.1693
    124  C         43.3810   30.8860   39.2370 C.2    91  LEU91       0.2593
    125  O         43.3080   29.8010   39.8130 O.2    91  LEU91      -0.2718
    126  CB        41.4890   31.0650   37.6410 C.3    91  LEU91       0.0284
    127  CG        40.8800   30.9730   36.2400 C.3    91  LEU91       0.0019
    128  CD1       39.3510   30.9660   36.3600 C.3    91  LEU91       0.0001
    129  CD2       41.3480   32.1440   35.3820 C.3    91  LEU91       0.0001
    130  N         43.7900   31.9970   39.8370 N.am   92  THR92      -0.1939
    131  CA        44.1320   32.0190   41.2500 C.3    92  THR92       0.2028
    132  C         43.9620   33.4330   41.7980 C.2    92  THR92       0.2642
    133  O         44.1140   34.4170   41.0760 O.2    92  THR92      -0.2714
    134  CB        45.5750   31.5410   41.5000 C.3    92  THR92       0.1808
    135  OG1       45.8560   31.6090   42.9040 O.3    92  THR92      -0.2208
    136  CG2       46.5740   32.4060   40.7340 C.3    92  THR92       0.0379
    137  N         43.6250   33.5250   43.0760 N.am   93  LEU93      -0.1963
    138  CA        43.4310   34.8090   43.7200 C.3    93  LEU93       0.1728
    139  C         44.6990   35.2100   44.4600 C.2    93  LEU93       0.2616
    140  O         44.7820   36.2940   45.0430 O.2    93  LEU93      -0.2715
    141  CB        42.2610   34.7190   44.6980 C.3    93  LEU93       0.0311
    142  CG        40.9380   34.2290   44.1060 C.3    93  LEU93       0.0022
    143  CD1       39.8640   34.2850   45.1870 C.3    93  LEU93       0.0001
    144  CD2       40.5450   35.0960   42.9170 C.3    93  LEU93       0.0001
    145  N         45.6850   34.3200   44.4260 N.am   94  SER94      -0.1950
    146  CA        46.9630   34.5440   45.0930 C.3    94  SER94       0.1924
    147  C         47.9940   35.2330   44.2050 C.2    94  SER94       0.2314
    148  O         48.3380   34.7330   43.1360 O.2    94  SER94      -0.2863
    149  CB        47.5320   33.2140   45.5750 C.3    94  SER94       0.2116
    150  OG        48.9220   33.3260   45.8190 O.3    94  SER94      -0.2180
    151  N         51.1500   33.0850   43.9130 N.3    97  GLN97      -0.1245
    152  CA        50.9530   31.9280   43.0480 C.3    97  GLN97       0.1566
    153  C         50.9530   32.3330   41.5810 C.2    97  GLN97       0.2260
    154  O         51.5040   31.6310   40.7380 O.2    97  GLN97      -0.2867
    155  CB        49.6540   31.1990   43.4240 C.3    97  GLN97       0.0367
    156  CG        49.7890   30.3740   44.7090 C.3    97  GLN97       0.0905
    157  CD        48.4840   29.7390   45.1690 C.2    97  GLN97       0.2608
    158  OE1       48.4690   28.8770   46.0590 O.2    97  GLN97      -0.2717
    159  NE2       47.3850   30.1690   44.5790 N.am   97  GLN97      -0.0878
    160  N         42.7360   36.0920   38.9820 N.3   119  ALA119     -0.1231
    161  CA        41.3020   36.3340   38.9170 C.3   119  ALA119      0.1694
    162  C         40.5270   35.1160   39.4140 C.2   119  ALA119      0.2593
    163  O         41.0760   34.0200   39.5310 O.2   119  ALA119     -0.2718
    164  CB        40.9020   36.6490   37.4740 C.3   119  ALA119      0.0304
    165  N         39.2500   35.3110   39.7090 N.am  120  GLY120     -0.1942
    166  CA        38.4440   34.2010   40.1720 C.3   120  GLY120      0.2014
    167  C         37.6740   33.6260   39.0040 C.2   120  GLY120      0.2639
    168  O         37.6970   34.1860   37.9060 O.2   120  GLY120     -0.2714
    169  N         37.0090   32.5000   39.2170 N.am  121  TRP121     -0.1959
    170  CA        36.2170   31.9150   38.1490 C.3   121  TRP121      0.1771
    171  C         35.1060   32.9110   37.8380 C.2   121  TRP121      0.2619
    172  O         34.6830   33.0430   36.6910 O.2   121  TRP121     -0.2715
    173  CB        35.5880   30.5840   38.5850 C.3   121  TRP121      0.0590
    174  CG        34.8300   30.6710   39.8760 C.ar  121  TRP121      0.0006
    175  CD1       35.3220   30.4550   41.1290 C.ar  121  TRP121      0.0946
    176  CD2       33.4590   31.0540   40.0450 C.ar  121  TRP121      0.0152
    177  NE1       34.3450   30.6820   42.0700 N.ar  121  TRP121     -0.2442
    178  CE2       33.1920   31.0510   41.4310 C.ar  121  TRP121      0.0810
    179  CE3       32.4310   31.4020   39.1600 C.ar  121  TRP121      0.0012
    180  CZ2       31.9390   31.3820   41.9530 C.ar  121  TRP121      0.0191
    181  CZ3       31.1850   31.7310   39.6790 C.ar  121  TRP121      0.0001
    182  CH2       30.9510   31.7190   41.0600 C.ar  121  TRP121      0.0015
    183  N         34.6410   33.6210   38.8610 N.am  122  GLU122     -0.1977
    184  CA        33.5640   34.5730   38.6440 C.3   122  GLU122      0.1602
    185  C         33.9090   35.6500   37.6110 C.2   122  GLU122      0.2287
    186  O         33.0240   36.2980   37.0620 O.2   122  GLU122     -0.2864
    187  CB        33.0970   35.2020   39.9760 C.3   122  GLU122      0.0415
    188  CG        34.1540   35.5190   41.0250 C.3   122  GLU122      0.1163
    189  CD        34.5320   34.3300   41.9150 C.2   122  GLU122      0.3649
    190  OE1       35.3120   33.4650   41.4650 O.co2 122  GLU122     -0.2457
    191  OE2       34.0540   34.2650   43.0690 O.co2 122  GLU122     -0.2457
    192  N         40.9800   21.6140   42.2550 N.3   134  ILE134     -0.1231
    193  CA        41.3670   20.8350   43.4110 C.3   134  ILE134      0.1692
    194  C         41.6330   21.7170   44.6160 C.2   134  ILE134      0.2593
    195  O         42.5390   22.5480   44.5950 O.2   134  ILE134     -0.2718
    196  CB        42.6410   20.0270   43.0840 C.3   134  ILE134      0.0266
    197  CG1       42.3790   19.1420   41.8630 C.3   134  ILE134      0.0019
    198  CG2       43.0720   19.2050   44.2900 C.3   134  ILE134      0.0020
    199  CD1       43.6300   18.5580   41.2540 C.3   134  ILE134      0.0001
    200  N         40.8350   21.5340   45.6650 N.am  135  GLY135     -0.1942
    201  CA        41.0180   22.3020   46.8830 C.3   135  GLY135      0.2014
    202  C         40.7140   23.7840   46.7930 C.2   135  GLY135      0.2638
    203  O         41.1600   24.5570   47.6360 O.2   135  GLY135     -0.2714
    204  N         39.9500   24.1900   45.7860 N.am  136  ALA136     -0.1977
    205  CA        39.6040   25.5970   45.6320 C.3   136  ALA136      0.1597
    206  C         38.1630   25.8590   46.0650 C.2   136  ALA136      0.2287
    207  O         37.8660   26.8790   46.6820 O.2   136  ALA136     -0.2864
    208  CB        39.7950   26.0270   44.1790 C.3   136  ALA136      0.0319
    209  N         36.7540   27.4570   49.2680 N.3   139  HIS139     -0.1226
    210  CA        36.8670   28.9130   49.3990 C.3   139  HIS139      0.1752
    211  C         35.7330   29.6810   48.7230 C.2   139  HIS139      0.2596
    212  O         35.4740   30.8330   49.0570 O.2   139  HIS139     -0.2718
    213  CB        38.1810   29.4000   48.7830 C.3   139  HIS139      0.0759
    214  CG        39.3980   29.0510   49.5780 C.ar  139  HIS139      0.0818
    215  ND1       39.6970   29.6520   50.7820 N.ar  139  HIS139     -0.2268
    216  CD2       40.4040   28.1770   49.3330 C.ar  139  HIS139      0.1154
    217  CE1       40.8350   29.1650   51.2440 C.ar  139  HIS139      0.1986
    218  NE2       41.2850   28.2690   50.3840 N.ar  139  HIS139     -0.2212
    219  N         35.0740   29.0480   47.7620 N.am  140  PHE140     -0.1976
    220  CA        34.0080   29.7020   47.0130 C.3   140  PHE140      0.1639
    221  C         32.8900   30.3250   47.8380 C.2   140  PHE140      0.2290
    222  O         32.4030   31.4040   47.5060 O.2   140  PHE140     -0.2864
    223  CB        33.3990   28.7220   46.0040 C.3   140  PHE140      0.0560
    224  CG        34.3450   28.2970   44.9140 C.ar  140  PHE140     -0.0200
    225  CD1       33.9530   27.3500   43.9780 C.ar  140  PHE140     -0.0042
    226  CD2       35.6360   28.8100   44.8440 C.ar  140  PHE140     -0.0042
    227  CE1       34.8310   26.9120   42.9870 C.ar  140  PHE140     -0.0003
    228  CE2       36.5200   28.3780   43.8560 C.ar  140  PHE140     -0.0003
    229  CZ        36.1150   27.4240   42.9250 C.ar  140  PHE140     -0.0000
@<TRIPOS>BOND
     1    71    72    1
     2   129   127    1
     3   118   117    2
     4   127   128    1
     5   127   126    1
     6    72    75    1
     7    72    73    1
     8   117   116    1
     9    75    76    1
    10   172   171    2
    11   122   123    1
    12   186   185    2
    13    73    74    2
    14    73    79   am
    15    86    84    1
    16    84    83    1
    17   164   161    1
    18   185   184    1
    19   126   123    1
    20   123   124    1
    21   121   119    1
    22   171   170    1
    23   171   183   am
    24    79    80    1
    25   168   167    2
    26   116   119    1
    27   116   115    1
    28    76    78   ar
    29    76    77   ar
    30   170   173    1
    31   170   169    1
    32   173   174    1
    33   119   120    1
    34   184   183    1
    35   184   187    1
    36    80    83    1
    37    80    81    1
    38    83    85    1
    39    95    96    1
    40    95    92    1
    41   161   160    1
    42   161   162    1
    43   167   169   am
    44   167   166    1
    45   179   181   ar
    46   179   176   ar
    47   124   125    2
    48   124   130   am
    49   162   163    2
    50   162   165   am
    51   181   182   ar
    52   165   166    1
    53   130   131    1
    54   174   176   ar
    55   174   175   ar
    56   187   188    1
    57   176   178   ar
    58    81    87   am
    59    81    82    2
    60    92    91    1
    61    92    93    1
    62    87    88    1
    63   104   103    2
    64    91    89   am
    65   136   134    1
    66   154   153    2
    67   103   102    1
    68    94    93    2
    69   188   189    1
    70   182   180   ar
    71   133   132    2
    72   175   177   ar
    73    93    97   am
    74   131   134    1
    75   131   132    1
    76   199   197    1
    77   178   180   ar
    78   178   177   ar
    79   190   189   ar
    80   134   135    1
    81   153   152    1
    82    89    88    1
    83    89    90    2
    84   132   137   am
    85     6     7    1
    86     6     5    1
    87   100    99    2
    88   197   196    1
    89     7     1    1
    90   189   191   ar
    91    97    98    1
    92   192   193    1
    93   102   101    1
    94   102   105    1
    95    99   101   am
    96    99    98    1
    97   144   142    1
    98   229   227   ar
    99   229   228   ar
   100   227   225   ar
   101   152   155    1
   102   152   151    1
   103   137   138    1
   104   196   193    1
   105   196   198    1
   106   148   147    2
   107     5     2    1
   108     1     2    1
   109   105   106    1
   110   193   194    1
   111   155   156    1
   112   138   139    1
   113   138   141    1
   114   228   226   ar
   115    51    50    1
   116   225   224   ar
   117     2     3    1
   118   142   141    1
   119   142   143    1
   120   208   205    1
   121   147   146    1
   122   107   106   ar
   123   107   109   ar
   124   106   108   ar
   125   145   139   am
   126   145   146    1
   127   139   140    2
   128   159   157   am
   129   195   194    2
   130   194   200   am
   131   156   157    1
   132   226   224   ar
   133   224   223    1
   134   146   149    1
   135    52    50    1
   136   157   158    2
   137    50    47    1
   138    37    38    1
   139   109   110   ar
   140     3     4    2
   141     3     8   am
   142    42    41    1
   143    42    43    1
   144    41    38    1
   145   149   150    1
   146    47    46    1
   147    47    48    1
   148   205   204    1
   149   205   206    1
   150   200   201    1
   151   108   110   ar
   152   108   111   ar
   153    46    39   am
   154   204   202   am
   155    40    39    2
   156    39    38    1
   157   223   220    1
   158   206   207    2
   159    70    69    1
   160   110   112   ar
   161   111   113   ar
   162     8     9    1
   163   202   201    1
   164   202   203    2
   165    45    43   am
   166    43    44    2
   167   220   219    1
   168   220   221    1
   169    48    53   am
   170    48    49    2
   171    53    54    1
   172    69    66    1
   173   222   221    2
   174   112   114   ar
   175   113   114   ar
   176   219   211   am
   177     9    10    1
   178     9    12    1
   179    10    11    2
   180    23    22    1
   181    54    55    1
   182    54    57    1
   183    56    55    2
   184    55    65   am
   185    65    66    1
   186    66    67    1
   187    14    16   ar
   188    14    13   ar
   189    57    58    1
   190    24    22    1
   191    22    19    1
   192   211   212    2
   193   211   210    1
   194    16    17   ar
   195    12    13    1
   196   213   210    1
   197   213   214    1
   198    68    67    2
   199    13    15   ar
   200    29    30    1
   201    29    26    1
   202    17    15   ar
   203    30    32   ar
   204    30    31   ar
   205    28    27    2
   206    32    34   ar
   207   209   210    1
   208   216   214   ar
   209   216   218   ar
   210    31    33   ar
   211   214   215   ar
   212    34    35   ar
   213    33    35   ar
   214    27    26    1
   215    35    36    1
   216    58    59   ar
   217    58    60   ar
   218    19    20    1
   219    19    18    1
   220    26    25    1
   221    20    21    2
   222    59    61   ar
   223   218   217   ar
   224   215   217   ar
   225    60    62   ar
   226    61    63   ar
   227    62    63   ar
   228    63    64    1
