@<TRIPOS>MOLECULE
tmp/1tpyA01.pdb
 200 194 0 0 0
SMALL
GASTEIGER

@<TRIPOS>ATOM
      1  N         47.3820   32.1580   51.1560 N.3    14  TYR14      -0.1241
      2  CA        48.3560   31.8100   50.1230 C.3    14  TYR14       0.1605
      3  C         49.4390   32.8150   49.7770 C.2    14  TYR14       0.2264
      4  O         50.4170   32.4610   49.1180 O.2    14  TYR14      -0.2867
      5  CB        47.6310   31.3820   48.8430 C.3    14  TYR14       0.0534
      6  CG        46.6020   30.3170   49.1080 C.ar   14  TYR14      -0.0201
      7  CD1       45.2710   30.6540   49.3460 C.ar   14  TYR14      -0.0009
      8  CD2       46.9750   28.9800   49.2270 C.ar   14  TYR14      -0.0009
      9  CE1       44.3390   29.6880   49.7030 C.ar   14  TYR14       0.0417
     10  CE2       46.0510   28.0070   49.5850 C.ar   14  TYR14       0.0417
     11  CZ        44.7400   28.3660   49.8230 C.ar   14  TYR14       0.1957
     12  OH        43.8360   27.4090   50.1960 O.3    14  TYR14      -0.2866
     13  N         49.1820   21.7310   47.1310 N.3    31  TYR31      -0.1227
     14  CA        48.6250   22.0370   48.4340 C.3    31  TYR31       0.1736
     15  C         47.2020   21.5080   48.5020 C.2    31  TYR31       0.2596
     16  O         46.2390   22.2710   48.5010 O.2    31  TYR31      -0.2718
     17  CB        48.6600   23.5550   48.6200 C.3    31  TYR31       0.0548
     18  CG        48.5450   24.0510   50.0430 C.ar   31  TYR31      -0.0200
     19  CD1       48.5030   25.4170   50.3060 C.ar   31  TYR31      -0.0009
     20  CD2       48.4790   23.1680   51.1210 C.ar   31  TYR31      -0.0009
     21  CE1       48.3980   25.8990   51.5980 C.ar   31  TYR31       0.0417
     22  CE2       48.3740   23.6410   52.4310 C.ar   31  TYR31       0.0417
     23  CZ        48.3350   25.0150   52.6550 C.ar   31  TYR31       0.1957
     24  OH        48.2400   25.5170   53.9300 O.3    31  TYR31      -0.2866
     25  N         47.0920   20.1850   48.5610 N.am   32  SER32      -0.1952
     26  CA        45.8130   19.4960   48.6070 C.3    32  SER32       0.1924
     27  C         46.0750   18.0190   48.9060 C.2    32  SER32       0.2314
     28  O         47.2040   17.5510   48.8050 O.2    32  SER32      -0.2863
     29  CB        45.0940   19.6490   47.2610 C.3    32  SER32       0.2116
     30  OG        45.9630   19.3300   46.1800 O.3    32  SER32      -0.2180
     31  N         40.9800   21.6140   42.2550 N.3   134  ILE134     -0.1231
     32  CA        41.3670   20.8350   43.4110 C.3   134  ILE134      0.1692
     33  C         41.6330   21.7170   44.6160 C.2   134  ILE134      0.2592
     34  O         42.5390   22.5480   44.5950 O.2   134  ILE134     -0.2718
     35  CB        42.6410   20.0270   43.0840 C.3   134  ILE134      0.0266
     36  CG1       42.3790   19.1420   41.8630 C.3   134  ILE134      0.0019
     37  CG2       43.0720   19.2050   44.2900 C.3   134  ILE134      0.0020
     38  CD1       43.6300   18.5580   41.2540 C.3   134  ILE134      0.0001
     39  N         40.8350   21.5340   45.6650 N.am  135  GLY135     -0.1957
     40  CA        41.0180   22.3020   46.8830 C.3   135  GLY135      0.1869
     41  C         40.7140   23.7840   46.7930 C.2   135  GLY135      0.2309
     42  O         41.1600   24.5570   47.6360 O.2   135  GLY135     -0.2863
     43  N         36.2720   24.8970   48.4380 N.3   138  GLU138     -0.1231
     44  CA        36.0680   25.1980   49.8520 C.3   138  GLU138      0.1699
     45  C         36.0850   26.7030   50.1360 C.2   138  GLU138      0.2592
     46  O         35.4970   27.1640   51.1160 O.2   138  GLU138     -0.2718
     47  CB        37.1420   24.4990   50.6970 C.3   138  GLU138      0.0402
     48  CG        37.2230   22.9800   50.5020 C.3   138  GLU138      0.1161
     49  CD        38.1900   22.5580   49.3990 C.2   138  GLU138      0.3649
     50  OE1       38.1930   23.1860   48.3210 O.co2 138  GLU138     -0.2457
     51  OE2       38.9440   21.5860   49.6100 O.co2 138  GLU138     -0.2457
     52  N         36.7540   27.4570   49.2680 N.am  139  HIS139     -0.1976
     53  CA        36.8670   28.9130   49.3990 C.3   139  HIS139      0.1656
     54  C         35.7330   29.6810   48.7230 C.2   139  HIS139      0.2291
     55  O         35.4740   30.8330   49.0570 O.2   139  HIS139     -0.2864
     56  CB        38.1810   29.4000   48.7830 C.3   139  HIS139      0.0771
     57  CG        39.3980   29.0510   49.5780 C.ar  139  HIS139      0.0820
     58  ND1       39.6970   29.6520   50.7820 N.ar  139  HIS139     -0.2267
     59  CD2       40.4040   28.1770   49.3330 C.ar  139  HIS139      0.1154
     60  CE1       40.8350   29.1650   51.2440 C.ar  139  HIS139      0.1986
     61  NE2       41.2850   28.2690   50.3840 N.ar  139  HIS139     -0.2212
     62  N         37.1970   19.2750   49.7500 N.3   167  ILE167     -0.1245
     63  CA        36.9910   18.7460   51.0770 C.3   167  ILE167      0.1561
     64  C         35.4890   18.8110   51.2810 C.2   167  ILE167      0.2260
     65  O         34.8390   19.7440   50.8180 O.2   167  ILE167     -0.2867
     66  CB        37.6780   19.6230   52.1310 C.3   167  ILE167      0.0252
     67  CG1       39.1930   19.4770   52.0090 C.3   167  ILE167      0.0019
     68  CG2       37.1900   19.2460   53.5310 C.3   167  ILE167      0.0019
     69  CD1       39.9620   20.4380   52.8810 C.3   167  ILE167      0.0001
     70  N         37.4290   24.5840   64.6620 N.3   190  LEU190     -0.1245
     71  CA        36.8100   25.1050   63.4450 C.3   190  LEU190      0.1561
     72  C         36.8130   26.6400   63.4330 C.2   190  LEU190      0.2260
     73  O         37.0690   27.2680   62.4010 O.2   190  LEU190     -0.2867
     74  CB        35.3750   24.5770   63.3160 C.3   190  LEU190      0.0270
     75  CG        35.1400   23.2760   62.5310 C.3   190  LEU190      0.0019
     76  CD1       36.2620   22.2920   62.7740 C.3   190  LEU190      0.0001
     77  CD2       33.8030   22.6680   62.9380 C.3   190  LEU190      0.0001
     78  N         40.2980   27.7770   62.6010 N.3   193  ILE193     -0.1231
     79  CA        40.5880   27.6770   61.1760 C.3   193  ILE193      0.1692
     80  C         39.9930   28.8710   60.4190 C.2   193  ILE193      0.2591
     81  O         40.6720   29.5150   59.6160 O.2   193  ILE193     -0.2718
     82  CB        40.0120   26.3740   60.5890 C.3   193  ILE193      0.0266
     83  CG1       40.6830   25.1620   61.2390 C.3   193  ILE193      0.0019
     84  CG2       40.2340   26.3410   59.0880 C.3   193  ILE193      0.0020
     85  CD1       42.1450   24.9840   60.8630 C.3   193  ILE193      0.0001
     86  N         38.7250   29.1640   60.6930 N.am  194  ALA194     -0.1980
     87  CA        38.0250   30.2650   60.0400 C.3   194  ALA194      0.1597
     88  C         38.5690   31.6370   60.4260 C.2   194  ALA194      0.2287
     89  O         38.4380   32.5970   59.6750 O.2   194  ALA194     -0.2864
     90  CB        36.5470   30.1930   60.3660 C.3   194  ALA194      0.0319
     91  N         41.8630   29.9220   57.3030 N.3   198  PHE198     -0.1241
     92  CA        41.0980   30.0640   56.0770 C.3   198  PHE198      0.1605
     93  C         39.8550   30.9250   56.2220 C.2   198  PHE198      0.2264
     94  O         38.7370   30.4180   56.1960 O.2   198  PHE198     -0.2867
     95  CB        40.6760   28.6890   55.5570 C.3   198  PHE198      0.0534
     96  CG        41.8240   27.8150   55.1550 C.ar  198  PHE198     -0.0203
     97  CD1       42.0040   26.5670   55.7490 C.ar  198  PHE198     -0.0042
     98  CD2       42.7230   28.2320   54.1790 C.ar  198  PHE198     -0.0042
     99  CE1       43.0660   25.7480   55.3730 C.ar  198  PHE198     -0.0003
    100  CE2       43.7840   27.4190   53.7970 C.ar  198  PHE198     -0.0003
    101  CZ        43.9550   26.1730   54.3980 C.ar  198  PHE198     -0.0000
    102  N         36.4810   30.3040   54.5450 N.3   201  GLY201     -0.1210
    103  CA        36.4690   28.8860   54.2240 C.3   201  GLY201      0.1956
    104  C         35.1760   28.2200   54.6520 C.2   201  GLY201      0.2612
    105  O         34.8360   28.2220   55.8360 O.2   201  GLY201     -0.2717
    106  N         34.4590   27.6480   53.6880 N.am  202  GLN202     -0.1966
    107  CA        33.1830   26.9810   53.9420 C.3   202  GLN202      0.1718
    108  C         33.0870   25.6940   53.1220 C.2   202  GLN202      0.2458
    109  O         32.4940   25.6790   52.0440 O.2   202  GLN202     -0.2730
    110  CB        32.0180   27.8980   53.5470 C.3   202  GLN202      0.0407
    111  CG        32.1300   29.3330   54.0490 C.3   202  GLN202      0.0908
    112  CD        31.0810   30.2550   53.4400 C.2   202  GLN202      0.2608
    113  OE1       31.1870   31.4830   53.5330 O.2   202  GLN202     -0.2717
    114  NE2       30.0620   29.6680   52.8160 N.am  202  GLN202     -0.0878
    115  N         33.6510   24.5910   53.6280 N.am  203  PRO203     -0.2727
    116  CA        33.5800   23.3410   52.8690 C.3   203  PRO203      0.1402
    117  C         32.1340   22.9320   52.6300 C.2   203  PRO203      0.2269
    118  O         31.2690   23.1440   53.4750 O.2   203  PRO203     -0.2865
    119  CB        34.2990   22.3540   53.7730 C.3   203  PRO203      0.0296
    120  CG        33.8990   22.8340   55.1380 C.3   203  PRO203      0.0237
    121  CD        34.0800   24.3350   55.0150 C.3   203  PRO203      0.0939
    122  N         44.2470   12.0330   53.3860 N.3   230  TYR230     -0.1241
    123  CA        44.4710   13.3870   53.8720 C.3   230  TYR230      0.1605
    124  C         45.1420   13.4400   55.2390 C.2   230  TYR230      0.2264
    125  O         45.9950   14.2950   55.4780 O.2   230  TYR230     -0.2867
    126  CB        43.1670   14.1910   53.9070 C.3   230  TYR230      0.0534
    127  CG        43.3430   15.5800   53.3390 C.ar  230  TYR230     -0.0201
    128  CD1       44.5720   16.2280   53.4230 C.ar  230  TYR230     -0.0009
    129  CD2       42.3020   16.2300   52.6830 C.ar  230  TYR230     -0.0009
    130  CE1       44.7700   17.4790   52.8640 C.ar  230  TYR230      0.0417
    131  CE2       42.4890   17.4920   52.1190 C.ar  230  TYR230      0.0417
    132  CZ        43.7310   18.1040   52.2120 C.ar  230  TYR230      0.1957
    133  OH        43.9480   19.3320   51.6370 O.3   230  TYR230     -0.2866
    134  N         48.4520   15.3570   55.6930 N.3   234  LEU234     -0.1245
    135  CA        48.5720   16.3510   56.7460 C.3   234  LEU234      0.1561
    136  C         49.7010   16.0520   57.7330 C.2   234  LEU234      0.2260
    137  O         50.3890   16.9720   58.1790 O.2   234  LEU234     -0.2867
    138  CB        47.2300   16.4870   57.4710 C.3   234  LEU234      0.0270
    139  CG        46.2080   17.3080   56.6690 C.3   234  LEU234      0.0019
    140  CD1       44.8050   17.1190   57.2050 C.3   234  LEU234      0.0001
    141  CD2       46.6040   18.7720   56.7280 C.3   234  LEU234      0.0001
    142  N         52.9550   16.9930   56.0250 N.3   237  TRP237     -0.1241
    143  CA        53.1490   18.4380   55.9630 C.3   237  TRP237      0.1605
    144  C         53.5450   18.9380   57.3450 C.2   237  TRP237      0.2264
    145  O         54.4730   19.7220   57.4870 O.2   237  TRP237     -0.2867
    146  CB        51.8680   19.1590   55.5290 C.3   237  TRP237      0.0550
    147  CG        51.5310   19.0390   54.0840 C.ar  237  TRP237      0.0003
    148  CD1       52.3780   18.7020   53.0560 C.ar  237  TRP237      0.0946
    149  CD2       50.2630   19.3100   53.4850 C.ar  237  TRP237      0.0152
    150  NE1       51.7070   18.7480   51.8580 N.ar  237  TRP237     -0.2442
    151  CE2       50.4070   19.1180   52.0920 C.ar  237  TRP237      0.0810
    152  CE3       49.0130   19.6990   53.9910 C.ar  237  TRP237      0.0012
    153  CZ2       49.3480   19.2990   51.1990 C.ar  237  TRP237      0.0191
    154  CZ3       47.9610   19.8790   53.1070 C.ar  237  TRP237      0.0001
    155  CH2       48.1350   19.6790   51.7220 C.ar  237  TRP237      0.0015
    156  N         47.2670   24.1460   63.0390 N.3   263  TYR263     -0.1241
    157  CA        46.3250   23.9170   61.9520 C.3   263  TYR263      0.1605
    158  C         46.5710   22.5770   61.2630 C.2   263  TYR263      0.2264
    159  O         45.6390   21.8030   61.0630 O.2   263  TYR263     -0.2867
    160  CB        46.3860   25.0880   60.9540 C.3   263  TYR263      0.0534
    161  CG        46.4230   24.7450   59.4720 C.ar  263  TYR263     -0.0201
    162  CD1       45.4750   23.9010   58.8900 C.ar  263  TYR263     -0.0009
    163  CD2       47.3890   25.3190   58.6400 C.ar  263  TYR263     -0.0009
    164  CE1       45.4860   23.6370   57.5190 C.ar  263  TYR263      0.0417
    165  CE2       47.4090   25.0650   57.2660 C.ar  263  TYR263      0.0417
    166  CZ        46.4560   24.2230   56.7150 C.ar  263  TYR263      0.1957
    167  OH        46.4890   23.9680   55.3650 O.3   263  TYR263     -0.2866
    168  N         43.8450   19.4490   61.7280 N.3   267  CYS267     -0.1235
    169  CA        43.1060   18.9140   60.5920 C.3   267  CYS267      0.1677
    170  C         43.3670   17.4270   60.4050 C.2   267  CYS267      0.2270
    171  O         42.4680   16.6790   60.0160 O.2   267  CYS267     -0.2867
    172  CB        43.4650   19.6750   59.3160 C.3   267  CYS267      0.0956
    173  SG        42.9110   21.3920   59.3300 S.3   267  CYS267     -0.0801
    174  N         40.9440   15.7010   62.3790 N.3   270  LEU270     -0.1231
    175  CA        39.6180   15.7480   61.7770 C.3   270  LEU270      0.1693
    176  C         39.4030   14.6010   60.7870 C.2   270  LEU270      0.2592
    177  O         38.3910   13.9000   60.8590 O.2   270  LEU270     -0.2718
    178  CB        39.3880   17.0930   61.0810 C.3   270  LEU270      0.0284
    179  CG        39.3400   18.3040   62.0220 C.3   270  LEU270      0.0019
    180  CD1       38.9770   19.5430   61.2260 C.3   270  LEU270      0.0001
    181  CD2       38.3130   18.0610   63.1400 C.3   270  LEU270      0.0001
    182  N         40.3490   14.3990   59.8740 N.am  271  PHE271     -0.1976
    183  CA        40.2160   13.3240   58.8890 C.3   271  PHE271      0.1639
    184  C         40.4170   11.9530   59.5260 C.2   271  PHE271      0.2290
    185  O         39.7530   10.9840   59.1600 O.2   271  PHE271     -0.2864
    186  CB        41.2210   13.4960   57.7380 C.3   271  PHE271      0.0560
    187  CG        40.9390   14.6750   56.8550 C.ar  271  PHE271     -0.0200
    188  CD1       41.5210   15.9110   57.1130 C.ar  271  PHE271     -0.0042
    189  CD2       40.0530   14.5600   55.7880 C.ar  271  PHE271     -0.0042
    190  CE1       41.2220   17.0170   56.3250 C.ar  271  PHE271     -0.0003
    191  CE2       39.7480   15.6570   54.9970 C.ar  271  PHE271     -0.0003
    192  CZ        40.3340   16.8900   55.2670 C.ar  271  PHE271     -0.0000
    193  N         35.7510   15.1280   58.8910 N.3   276  ILE276     -0.1245
    194  CA        35.8600   15.6850   57.5540 C.3   276  ILE276      0.1561
    195  C         36.2320   14.5930   56.5520 C.2   276  ILE276      0.2260
    196  O         36.8410   13.5780   56.9130 O.2   276  ILE276     -0.2867
    197  CB        36.9420   16.7880   57.5270 C.3   276  ILE276      0.0252
    198  CG1       36.6320   17.8490   58.5880 C.3   276  ILE276      0.0019
    199  CG2       37.0050   17.4320   56.1610 C.3   276  ILE276      0.0019
    200  CD1       35.3270   18.5860   58.3670 C.3   276  ILE276      0.0001
@<TRIPOS>BOND
     1    38    36    1
     2    36    35    1
     3    31    32    1
     4    35    32    1
     5    35    37    1
     6    32    33    1
     7    34    33    2
     8    33    39   am
     9    39    40    1
    10    30    29    1
    11    41    40    1
    12    41    42    2
    13    13    14    1
    14    29    26    1
    15    50    49   ar
    16    14    15    1
    17    14    17    1
    18    43    44    1
    19    16    15    2
    20    15    25   am
    21    25    26    1
    22    26    27    1
    23    17    18    1
    24    54    55    2
    25    54    53    1
    26    56    53    1
    27    56    57    1
    28    28    27    2
    29     5     6    1
    30     5     2    1
    31     6     8   ar
    32     6     7   ar
    33     4     3    2
    34     8    10   ar
    35    52    53    1
    36    52    45   am
    37    59    57   ar
    38    59    61   ar
    39     7     9   ar
    40    49    51   ar
    41    49    48    1
    42    57    58   ar
    43    10    11   ar
    44     9    11   ar
    45    62    63    1
    46     3     2    1
    47    11    12    1
    48    44    45    1
    49    44    47    1
    50    18    19   ar
    51    18    20   ar
    52     2     1    1
    53    45    46    2
    54    19    21   ar
    55    61    60   ar
    56    48    47    1
    57    58    60   ar
    58    65    64    2
    59    63    64    1
    60    63    66    1
    61    20    22   ar
    62   153   155   ar
    63   153   151   ar
    64    21    23   ar
    65   133   132    1
    66   155   154   ar
    67   150   151   ar
    68   150   148   ar
    69    67    66    1
    70    67    69    1
    71   109   108    2
    72   151   149   ar
    73   131   132   ar
    74   131   129   ar
    75    66    68    1
    76   132   130   ar
    77    22    23   ar
    78   117   116    1
    79   117   118    2
    80    23    24    1
    81   129   127   ar
    82   114   112   am
    83   130   128   ar
    84   116   115    1
    85   116   119    1
    86   148   147   ar
    87   154   152   ar
    88   108   115   am
    89   108   107    1
    90   127   128   ar
    91   127   126    1
    92   122   123    1
    93   112   113    2
    94   112   111    1
    95   149   152   ar
    96   149   147   ar
    97   110   107    1
    98   110   111    1
    99   115   121    1
   100   106   107    1
   101   106   104   am
   102   119   120    1
   103   100    98   ar
   104   100   101   ar
   105   123   126    1
   106   123   124    1
   107   147   146    1
   108    98    96   ar
   109   103   102    1
   110   103   104    1
   111   101    99   ar
   112   104   105    2
   113   191   192   ar
   114   191   189   ar
   115   121   120    1
   116    96    95    1
   117    96    97   ar
   118   124   125    2
   119   192   190   ar
   120   167   166    1
   121    99    97   ar
   122   146   143    1
   123    95    92    1
   124   134   135    1
   125   189   187   ar
   126   143   142    1
   127   143   144    1
   128    92    93    1
   129    92    91    1
   130   199   197    1
   131    94    93    2
   132   190   188   ar
   133   195   196    2
   134   195   194    1
   135   139   141    1
   136   139   140    1
   137   139   138    1
   138   166   165   ar
   139   166   164   ar
   140   135   138    1
   141   135   136    1
   142   187   188   ar
   143   187   186    1
   144   165   163   ar
   145   144   145    2
   146   164   162   ar
   147   197   194    1
   148   197   198    1
   149   194   193    1
   150   136   137    2
   151   186   183    1
   152   200   198    1
   153   163   161   ar
   154   183   184    1
   155   183   182    1
   156   162   161   ar
   157    84    82    1
   158   185   184    2
   159   172   173    1
   160   172   169    1
   161   161   160    1
   162    81    80    2
   163    89    88    2
   164   182   176   am
   165   171   170    2
   166    87    90    1
   167    87    88    1
   168    87    86    1
   169   170   169    1
   170    80    86   am
   171    80    79    1
   172    82    79    1
   173    82    83    1
   174   169   168    1
   175   176   177    2
   176   176   175    1
   177    85    83    1
   178   160   157    1
   179   159   158    2
   180   178   175    1
   181   178   179    1
   182    79    78    1
   183   180   179    1
   184   158   157    1
   185   175   174    1
   186   157   156    1
   187   179   181    1
   188    73    72    2
   189    75    76    1
   190    75    77    1
   191    75    74    1
   192    74    71    1
   193    72    71    1
   194    71    70    1
