@<TRIPOS>MOLECULE
tmp/1tpzB01.pdb
 100 93 0 0 0
SMALL
GASTEIGER

@<TRIPOS>ATOM
      1  N         40.5620   -0.7710   76.8670 N.3   242  ASN242     -0.1240
      2  CA        41.9370   -1.0730   76.4810 C.3   242  ASN242      0.1653
      3  C         42.1180   -2.5840   76.4550 C.2   242  ASN242      0.2266
      4  O         42.8420   -3.1480   77.2770 O.2   242  ASN242     -0.2867
      5  CB        42.8920   -0.4210   77.4850 C.3   242  ASN242      0.1155
      6  CG        42.6630    1.0710   77.6040 C.2   242  ASN242      0.2627
      7  OD1       42.8910    1.8170   76.6510 O.2   242  ASN242     -0.2716
      8  ND2       42.1970    1.5140   78.7690 N.am  242  ASN242     -0.0877
      9  N         45.2480    0.1000   72.3140 N.3   248  ILE248     -0.1245
     10  CA        46.0960    0.9680   73.1130 C.3   248  ILE248      0.1561
     11  C         46.9670    1.8260   72.2090 C.2   248  ILE248      0.2260
     12  O         47.0910    3.0390   72.4070 O.2   248  ILE248     -0.2867
     13  CB        46.9730    0.1210   74.0640 C.3   248  ILE248      0.0252
     14  CG1       46.0780   -0.4800   75.1570 C.3   248  ILE248      0.0019
     15  CG2       48.1100    0.9710   74.6500 C.3   248  ILE248      0.0019
     16  CD1       46.7840   -1.4220   76.1120 C.3   248  ILE248      0.0001
     17  N         44.0860    5.3630   79.3630 N.3   297  PHE297     -0.1227
     18  CA        44.7140    4.0610   79.1880 C.3   297  PHE297      0.1736
     19  C         44.4750    3.0940   80.3360 C.2   297  PHE297      0.2596
     20  O         45.0570    2.0100   80.3780 O.2   297  PHE297     -0.2718
     21  CB        46.2090    4.2340   78.9250 C.3   297  PHE297      0.0547
     22  CG        46.5040    4.8710   77.6000 C.ar  297  PHE297     -0.0202
     23  CD1       46.5990    6.2540   77.4790 C.ar  297  PHE297     -0.0042
     24  CD2       46.6480    4.0860   76.4580 C.ar  297  PHE297     -0.0042
     25  CE1       46.8370    6.8530   76.2320 C.ar  297  PHE297     -0.0003
     26  CE2       46.8840    4.6690   75.2110 C.ar  297  PHE297     -0.0003
     27  CZ        46.9790    6.0570   75.0970 C.ar  297  PHE297     -0.0000
     28  N         43.6030    3.4880   81.2580 N.am  298  GLY298     -0.1942
     29  CA        43.2740    2.6300   82.3840 C.3   298  GLY298      0.2014
     30  C         44.3770    2.3570   83.3860 C.2   298  GLY298      0.2638
     31  O         44.4150    1.2880   83.9870 O.2   298  GLY298     -0.2714
     32  N         45.2860    3.3030   83.5710 N.am  299  VAL299     -0.1977
     33  CA        46.3500    3.1040   84.5450 C.3   299  VAL299      0.1596
     34  C         46.3020    4.1920   85.6040 C.2   299  VAL299      0.2287
     35  O         47.2880    4.4780   86.2780 O.2   299  VAL299     -0.2864
     36  CB        47.7520    3.0530   83.8810 C.3   299  VAL299      0.0276
     37  CG1       47.8320    1.8370   82.9690 C.3   299  VAL299      0.0022
     38  CG2       48.0280    4.3210   83.0960 C.3   299  VAL299      0.0022
     39  N         41.8690    2.7140   88.6600 N.3   303  SER303     -0.1202
     40  CA        42.0500    1.4750   87.9190 C.3   303  SER303      0.2020
     41  C         43.0730    0.5910   88.6130 C.2   303  SER303      0.2618
     42  O         42.9040   -0.6220   88.6950 O.2   303  SER303     -0.2717
     43  CB        42.5140    1.7540   86.4840 C.3   303  SER303      0.2103
     44  OG        41.4920    2.3710   85.7250 O.3   303  SER303     -0.2182
     45  N         44.1440    1.2010   89.1050 N.am  304  LEU304     -0.1979
     46  CA        45.1800    0.4410   89.7810 C.3   304  LEU304      0.1596
     47  C         44.6590   -0.1330   91.1000 C.2   304  LEU304      0.2287
     48  O         45.0390   -1.2350   91.4890 O.2   304  LEU304     -0.2864
     49  CB        46.4110    1.3190   90.0150 C.3   304  LEU304      0.0297
     50  CG        47.0160    1.9380   88.7450 C.3   304  LEU304      0.0022
     51  CD1       48.3180    2.6310   89.1050 C.3   304  LEU304      0.0001
     52  CD2       47.2640    0.8650   87.6850 C.3   304  LEU304      0.0001
     53  N         41.6290   -1.0530   91.6360 N.3   306  ARG306     -0.1231
     54  CA        40.7840   -2.1620   91.2050 C.3   306  ARG306      0.1694
     55  C         41.6410   -3.3720   90.8420 C.2   306  ARG306      0.2591
     56  O         41.3700   -4.4960   91.2660 O.2   306  ARG306     -0.2718
     57  CB        39.9480   -1.7180   90.0000 C.3   306  ARG306      0.0321
     58  CG        39.0930   -2.7960   89.3580 C.3   306  ARG306      0.0489
     59  CD        38.2020   -2.1740   88.2900 C.3   306  ARG306      0.2205
     60  NE        38.9750   -1.3420   87.3700 N.pl3 306  ARG306     -0.0865
     61  CZ        38.4480   -0.5720   86.4230 C.cat 306  ARG306      0.5346
     62  NH1       37.1320   -0.5190   86.2590 N.pl3 306  ARG306      0.1354
     63  NH2       39.2400    0.1490   85.6390 N.pl3 306  ARG306      0.1354
     64  N         42.6820   -3.1290   90.0560 N.am  307  LEU307     -0.1980
     65  CA        43.5870   -4.1840   89.6340 C.3   307  LEU307      0.1596
     66  C         44.2700   -4.8150   90.8530 C.2   307  LEU307      0.2287
     67  O         44.3390   -6.0370   90.9700 O.2   307  LEU307     -0.2864
     68  CB        44.6170   -3.6010   88.6570 C.3   307  LEU307      0.0297
     69  CG        45.6470   -4.5170   88.0000 C.3   307  LEU307      0.0022
     70  CD1       46.3710   -3.7780   86.8830 C.3   307  LEU307      0.0001
     71  CD2       46.6350   -4.9740   89.0420 C.3   307  LEU307      0.0001
     72  N         50.1320    0.6560   80.0230 N.3   379  ALA379     -0.1245
     73  CA        48.9020   -0.0400   79.6700 C.3   379  ALA379      0.1562
     74  C         49.1860   -1.4070   79.0560 C.2   379  ALA379      0.2260
     75  O         48.5640   -2.4050   79.4180 O.2   379  ALA379     -0.2867
     76  CB        48.0850    0.7970   78.7050 C.3   379  ALA379      0.0290
     77  N         50.3880   -3.8000   81.7900 N.3   382  LEU382     -0.1231
     78  CA        49.3510   -4.3570   82.6480 C.3   382  LEU382      0.1693
     79  C         48.3910   -5.2580   81.8850 C.2   382  LEU382      0.2591
     80  O         47.8970   -6.2450   82.4260 O.2   382  LEU382     -0.2718
     81  CB        48.5810   -3.2350   83.3610 C.3   382  LEU382      0.0284
     82  CG        49.4160   -2.4580   84.3900 C.3   382  LEU382      0.0019
     83  CD1       48.5630   -1.3960   85.0730 C.3   382  LEU382      0.0001
     84  CD2       49.9850   -3.4260   85.4220 C.3   382  LEU382      0.0001
     85  N         48.1260   -4.9290   80.6250 N.am  383  LEU383     -0.1980
     86  CA        47.2260   -5.7450   79.8240 C.3   383  LEU383      0.1596
     87  C         47.8040   -7.1460   79.6330 C.2   383  LEU383      0.2287
     88  O         47.0730   -8.1360   79.6840 O.2   383  LEU383     -0.2864
     89  CB        46.9790   -5.1030   78.4560 C.3   383  LEU383      0.0297
     90  CG        46.0650   -5.8940   77.5140 C.3   383  LEU383      0.0022
     91  CD1       44.7650   -6.2420   78.2240 C.3   383  LEU383      0.0001
     92  CD2       45.7800   -5.0690   76.2630 C.3   383  LEU383      0.0001
     93  N         47.2950   -9.0590   82.7840 N.3   386  ILE386     -0.1245
     94  CA        45.8720   -9.3250   82.9250 C.3   386  ILE386      0.1561
     95  C         45.4570  -10.5130   82.0670 C.2   386  ILE386      0.2260
     96  O         44.8090  -11.4420   82.5500 O.2   386  ILE386     -0.2867
     97  CB        45.0370   -8.1040   82.5070 C.3   386  ILE386      0.0252
     98  CG1       45.2390   -6.9730   83.5190 C.3   386  ILE386      0.0019
     99  CG2       43.5710   -8.4890   82.3930 C.3   386  ILE386      0.0019
    100  CD1       44.4610   -5.7160   83.1990 C.3   386  ILE386      0.0001
@<TRIPOS>BOND
     1    11    12    2
     2    11    10    1
     3     9    10    1
     4    10    13    1
     5    13    15    1
     6    13    14    1
     7    27    26   ar
     8    27    25   ar
     9    14    16    1
    10    26    24   ar
    11    25    23   ar
    12    92    90    1
    13     3     2    1
    14     3     4    2
    15    24    22   ar
    16     2     1    1
    17     2     5    1
    18     7     6    2
    19    23    22   ar
    20     5     6    1
    21    90    91    1
    22    90    89    1
    23    22    21    1
    24     6     8   am
    25    89    86    1
    26    76    73    1
    27    21    18    1
    28    74    75    2
    29    74    73    1
    30    18    17    1
    31    18    19    1
    32    87    88    2
    33    87    86    1
    34    73    72    1
    35    86    85    1
    36    19    20    2
    37    19    28   am
    38    85    79   am
    39    28    29    1
    40    77    78    1
    41    79    80    2
    42    79    78    1
    43    95    96    2
    44    95    94    1
    45    29    30    1
    46    99    97    1
    47    97    94    1
    48    97    98    1
    49    78    81    1
    50    93    94    1
    51    37    36    1
    52    38    36    1
    53   100    98    1
    54    81    82    1
    55    30    32   am
    56    30    31    2
    57    32    33    1
    58    36    33    1
    59    82    83    1
    60    82    84    1
    61    33    34    1
    62    34    35    2
    63    63    61    1
    64    44    43    1
    65    62    61    1
    66    61    60    2
    67    43    40    1
    68    70    69    1
    69    60    59    1
    70    52    50    1
    71    40    41    1
    72    40    39    1
    73    69    68    1
    74    69    71    1
    75    59    58    1
    76    41    42    2
    77    41    45   am
    78    68    65    1
    79    50    51    1
    80    50    49    1
    81    45    46    1
    82    58    57    1
    83    65    64    1
    84    65    66    1
    85    46    49    1
    86    46    47    1
    87    57    54    1
    88    64    55   am
    89    55    54    1
    90    55    56    2
    91    66    67    2
    92    47    48    2
    93    54    53    1
