@<TRIPOS>MOLECULE
tmp/1tpzA00.pdb
 130 124 0 0 0
SMALL
GASTEIGER

@<TRIPOS>ATOM
      1  N          3.7310    1.1720   36.2600 N.3    65  THR65      -0.1203
      2  CA         3.2700    1.6180   34.9550 C.3    65  THR65       0.1994
      3  C          2.2250    2.7140   35.1290 C.2    65  THR65       0.2618
      4  O          1.3720    2.6330   36.0080 O.2    65  THR65      -0.2717
      5  CB         2.6640    0.4560   34.1640 C.3    65  THR65       0.1784
      6  OG1        3.6470   -0.5780   34.0120 O.3    65  THR65      -0.2211
      7  CG2        2.2170    0.9280   32.7840 C.3    65  THR65       0.0376
      8  N          2.3100    3.7480   34.3000 N.am   66  GLY66      -0.1942
      9  CA         1.3620    4.8420   34.3960 C.3    66  GLY66       0.2014
     10  C          1.7470    5.9450   35.3710 C.2    66  GLY66       0.2640
     11  O          1.0820    6.9790   35.4150 O.2    66  GLY66      -0.2714
     12  N          2.8140    5.7360   36.1440 N.am   67  SER67      -0.1935
     13  CA         3.2680    6.7270   37.1230 C.3    67  SER67       0.2055
     14  C          3.7200    8.0360   36.4820 C.2    67  SER67       0.2644
     15  O          3.4160    9.1200   36.9780 O.2    67  SER67      -0.2714
     16  CB         4.4270    6.1660   37.9540 C.3    67  SER67       0.2130
     17  OG         4.0230    5.0340   38.6960 O.3    67  SER67      -0.2179
     18  N          4.4600    7.9280   35.3870 N.am   68  GLY68      -0.1939
     19  CA         4.9490    9.1130   34.7060 C.3    68  GLY68       0.2014
     20  C          6.4410    9.0430   34.4490 C.2    68  GLY68       0.2639
     21  O          7.0910   10.0680   34.2350 O.2    68  GLY68      -0.2714
     22  N          6.9860    7.8300   34.4570 N.am   69  LYS69      -0.1963
     23  CA         8.4150    7.6350   34.2340 C.3    69  LYS69       0.1728
     24  C          8.8700    8.2220   32.9030 C.2    69  LYS69       0.2617
     25  O          9.7510    9.0780   32.8580 O.2    69  LYS69      -0.2715
     26  CB         8.7580    6.1420   34.2820 C.3    69  LYS69       0.0311
     27  CG         8.4950    5.4670   35.6250 C.3    69  LYS69       0.0038
     28  CD         8.9240    4.0020   35.6000 C.3    69  LYS69       0.0206
     29  CE         8.0250    3.1540   34.6840 C.3    69  LYS69       0.1093
     30  NZ         6.6310    3.1070   35.2170 N.3    69  LYS69      -0.1314
     31  N          8.2600    7.7620   31.8160 N.am   70  SER70      -0.1936
     32  CA         8.6210    8.2390   30.4890 C.3    70  SER70       0.2055
     33  C          8.4310    9.7440   30.3540 C.2    70  SER70       0.2643
     34  O          9.2710   10.4390   29.7710 O.2    70  SER70      -0.2714
     35  CB         7.7990    7.4890   29.4400 C.3    70  SER70       0.2130
     36  OG         8.1280    6.1120   29.4690 O.3    70  SER70      -0.2179
     37  N          7.3350   10.2540   30.9010 N.am   71  SER71      -0.1949
     38  CA         7.0670   11.6860   30.8340 C.3    71  SER71       0.1924
     39  C          8.1380   12.4390   31.6090 C.2    71  SER71       0.2314
     40  O          8.6750   13.4360   31.1290 O.2    71  SER71      -0.2863
     41  CB         5.6920   12.0100   31.4260 C.3    71  SER71       0.2116
     42  OG         4.6550   11.4090   30.6720 O.3    71  SER71      -0.2180
     43  N          8.4370    7.4930   24.6400 N.3    88  LYS88      -0.1231
     44  CA         7.0000    7.4330   24.4020 C.3    88  LYS88       0.1693
     45  C          6.1950    7.2890   25.6850 C.2    88  LYS88       0.2593
     46  O          6.4630    6.4140   26.5120 O.2    88  LYS88      -0.2718
     47  CB         6.6710    6.2870   23.4430 C.3    88  LYS88       0.0285
     48  CG         7.3140    6.4490   22.0710 C.3    88  LYS88       0.0035
     49  CD         6.8450    5.3820   21.0920 C.3    88  LYS88       0.0206
     50  CE         5.3660    5.5360   20.7650 C.3    88  LYS88       0.1093
     51  NZ         4.9030    4.5530   19.7470 N.3    88  LYS88      -0.1314
     52  N          5.2030    8.1610   25.8340 N.am   89  THR89      -0.1939
     53  CA         4.3450    8.1680   27.0080 C.3    89  THR89       0.2028
     54  C          3.0370    7.4340   26.7420 C.2    89  THR89       0.2643
     55  O          2.6130    7.2910   25.5920 O.2    89  THR89      -0.2714
     56  CB         4.0200    9.6090   27.4480 C.3    89  THR89       0.1808
     57  OG1        3.1630   10.2300   26.4790 O.3    89  THR89      -0.2208
     58  CG2        5.3040   10.4240   27.5720 C.3    89  THR89       0.0379
     59  N          2.4080    6.9700   27.8160 N.am   90  GLY90      -0.1939
     60  CA         1.1520    6.2560   27.6950 C.3    90  GLY90       0.2014
     61  C          1.3300    4.8150   27.2560 C.2    90  GLY90       0.2638
     62  O          0.3750    4.1780   26.8140 O.2    90  GLY90      -0.2714
     63  N          2.5490    4.2990   27.3720 N.am   91  VAL91      -0.1977
     64  CA         2.8340    2.9230   26.9840 C.3    91  VAL91       0.1596
     65  C          2.4210    1.9680   28.0980 C.2    91  VAL91       0.2287
     66  O          3.0720    1.8940   29.1390 O.2    91  VAL91      -0.2864
     67  CB         4.3330    2.7300   26.6800 C.3    91  VAL91       0.0276
     68  CG1        4.6100    1.2780   26.2990 C.3    91  VAL91       0.0022
     69  CG2        4.7530    3.6660   25.5600 C.3    91  VAL91       0.0022
     70  N         14.7050    4.3620   31.7040 N.3   113  ASP113     -0.1239
     71  CA        13.2960    4.1030   31.9390 C.3   113  ASP113      0.1674
     72  C         13.2120    2.6460   32.3910 C.2   113  ASP113      0.2266
     73  O         13.3940    1.7310   31.5860 O.2   113  ASP113     -0.2867
     74  CB        12.5150    4.2960   30.6330 C.3   113  ASP113      0.1410
     75  CG        11.0730    4.6890   30.8670 C.2   113  ASP113      0.3668
     76  OD1       10.5570    4.4110   31.9700 O.co2 113  ASP113     -0.2456
     77  OD2       10.4530    5.2640   29.9430 O.co2 113  ASP113     -0.2456
     78  N          3.9280   12.6090   40.9940 N.3   170  THR170     -0.1203
     79  CA         3.5110   13.2420   39.7500 C.3   170  THR170      0.1994
     80  C          2.0100   13.4740   39.6710 C.2   170  THR170      0.2617
     81  O          1.2590   13.1030   40.5690 O.2   170  THR170     -0.2717
     82  CB         3.8850   12.3700   38.5410 C.3   170  THR170      0.1784
     83  OG1        3.4110   11.0360   38.7670 O.3   170  THR170     -0.2211
     84  CG2        5.3940   12.3420   38.3290 C.3   170  THR170      0.0376
     85  N          1.5930   14.1010   38.5780 N.am  171  LYS171     -0.1979
     86  CA         0.1900   14.3620   38.2990 C.3   171  LYS171      0.1596
     87  C         -0.5600   15.2250   39.2980 C.2   171  LYS171      0.2287
     88  O         -1.7840   15.1730   39.3520 O.2   171  LYS171     -0.2864
     89  CB        -0.5480   13.0300   38.1280 C.3   171  LYS171      0.0298
     90  CG         0.0890   12.1230   37.0870 C.3   171  LYS171      0.0038
     91  CD        -0.7610   10.9020   36.7970 C.3   171  LYS171      0.0206
     92  CE        -0.1620   10.0850   35.6670 C.3   171  LYS171      0.1093
     93  NZ        -1.0040    8.9120   35.3070 N.3   171  LYS171     -0.1314
     94  N         -1.1320   18.1900   39.0820 N.3   173  ASP173     -0.1225
     95  CA        -1.9640   19.0870   38.2890 C.3   173  ASP173      0.1805
     96  C         -3.3310   18.4570   38.0070 C.2   173  ASP173      0.2598
     97  O         -4.3370   19.1610   37.9170 O.2   173  ASP173     -0.2718
     98  CB        -1.2650   19.4540   36.9750 C.3   173  ASP173      0.1424
     99  CG        -0.9950   18.2490   36.0940 C.2   173  ASP173      0.3668
    100  OD1       -0.2960   17.3160   36.5490 O.co2 173  ASP173     -0.2456
    101  OD2       -1.4810   18.2380   34.9420 O.co2 173  ASP173     -0.2456
    102  N         -3.3670   17.1360   37.8690 N.am  174  SER174     -0.1952
    103  CA        -4.6250   16.4390   37.6270 C.3   174  SER174      0.1924
    104  C         -5.4970   16.5580   38.8710 C.2   174  SER174      0.2314
    105  O         -6.6450   17.0000   38.7980 O.2   174  SER174     -0.2863
    106  CB        -4.3830   14.9570   37.3230 C.3   174  SER174      0.2116
    107  OG        -3.6940   14.7840   36.0990 O.3   174  SER174     -0.2180
    108  N          4.3790   18.2260   38.3930 N.3   211  SER211     -0.1202
    109  CA         3.6250   17.9150   37.1940 C.3   211  SER211      0.2020
    110  C          4.5720   17.8670   36.0100 C.2   211  SER211      0.2619
    111  O          5.2400   18.8550   35.7090 O.2   211  SER211     -0.2717
    112  CB         2.5660   18.9900   36.9370 C.3   211  SER211      0.2103
    113  OG         1.9560   18.7860   35.6760 O.3   211  SER211     -0.2182
    114  N          4.6310   16.7230   35.3370 N.am  212  ASN212     -0.1960
    115  CA         5.5040   16.5970   34.1760 C.3   212  ASN212      0.1819
    116  C          5.0400   17.5230   33.0640 C.2   212  ASN212      0.2621
    117  O          5.7700   17.7630   32.1050 O.2   212  ASN212     -0.2715
    118  CB         5.5240   15.1590   33.6630 C.3   212  ASN212      0.1195
    119  CG         6.2450   14.2160   34.6040 C.2   212  ASN212      0.2630
    120  OD1        7.3550   14.5000   35.0500 O.2   212  ASN212     -0.2716
    121  ND2        5.6210   13.0840   34.9050 N.am  212  ASN212     -0.0877
    122  N          3.8280   18.0510   33.2080 N.am  213  LYS213     -0.1977
    123  CA         3.2600   18.9470   32.2130 C.3   213  LYS213      0.1596
    124  C          3.5620   20.4180   32.4850 C.2   213  LYS213      0.2287
    125  O          3.3540   21.2650   31.6170 O.2   213  LYS213     -0.2864
    126  CB         1.7450   18.7390   32.1320 C.3   213  LYS213      0.0298
    127  CG         1.3330   17.3780   31.5830 C.3   213  LYS213      0.0038
    128  CD        -0.1730   17.3180   31.3740 C.3   213  LYS213      0.0206
    129  CE        -0.6020   16.0290   30.6950 C.3   213  LYS213      0.1093
    130  NZ         0.0220   15.8760   29.3570 N.3   213  LYS213     -0.1314
@<TRIPOS>BOND
     1    51    50    1
     2    50    49    1
     3    49    48    1
     4    48    47    1
     5    47    44    1
     6    44    43    1
     7    44    45    1
     8    69    67    1
     9    55    54    2
    10    45    52   am
    11    45    46    2
    12    52    53    1
    13    68    67    1
    14    57    56    1
    15    67    64    1
    16    54    53    1
    17    54    59   am
    18    62    61    2
    19    64    63    1
    20    64    65    1
    21    53    56    1
    22    61    63   am
    23    61    60    1
    24    56    58    1
    25    60    59    1
    26    65    66    2
    27   130   129    1
    28    35    36    1
    29    35    32    1
    30    34    33    2
    31    77    75   ar
    32    33    32    1
    33    33    37   am
    34    32    31    1
    35    74    75    1
    36    74    71    1
    37    42    41    1
    38   129   128    1
    39    38    37    1
    40    38    41    1
    41    38    39    1
    42    75    76   ar
    43    40    39    2
    44   128   127    1
    45   127   126    1
    46    73    72    2
    47   125   124    2
    48    70    71    1
    49    31    24   am
    50    71    72    1
    51   117   116    2
    52   126   123    1
    53   123   124    1
    54   123   122    1
    55     7     5    1
    56    25    24    2
    57    24    23    1
    58   116   122   am
    59   116   115    1
    60   118   115    1
    61   118   119    1
    62     6     5    1
    63     5     2    1
    64   115   114    1
    65    23    26    1
    66    23    22    1
    67    21    20    2
    68    26    27    1
    69     8     9    1
    70     8     3   am
    71     9    10    1
    72    20    22   am
    73    20    19    1
    74   119   121   am
    75   119   120    2
    76    29    30    1
    77    29    28    1
    78    19    18    1
    79   101    99   ar
    80     2     3    1
    81     2     1    1
    82     3     4    2
    83    93    92    1
    84   114   110   am
    85    10    11    2
    86    10    12   am
    87    18    14   am
    88    28    27    1
    89    92    91    1
    90   113   112    1
    91   111   110    2
    92   110   109    1
    93    99   100   ar
    94    99    98    1
    95   107   106    1
    96    12    13    1
    97    14    15    2
    98    14    13    1
    99    91    90    1
   100   112   109    1
   101    98    95    1
   102    90    89    1
   103    13    16    1
   104   109   108    1
   105   106   103    1
   106   103   102    1
   107   103   104    1
   108   102    96   am
   109    97    96    2
   110    16    17    1
   111    96    95    1
   112    89    86    1
   113    95    94    1
   114    86    85    1
   115    86    87    1
   116    84    82    1
   117    82    83    1
   118    82    79    1
   119    85    80   am
   120   105   104    2
   121    87    88    2
   122    80    79    1
   123    80    81    2
   124    79    78    1
