@<TRIPOS>MOLECULE
tmp/1tq2B01.pdb
 79 76 0 0 0
SMALL
GASTEIGER

@<TRIPOS>ATOM
      1  N         42.7150   12.6250   62.6540 N.3    20  ILE20      -0.1231
      2  CA        41.6340   13.2610   63.3910 C.3    20  ILE20       0.1692
      3  C         41.2780   14.6160   62.8250 C.2    20  ILE20       0.2592
      4  O         40.5070   15.3520   63.4170 O.2    20  ILE20      -0.2718
      5  CB        41.9710   13.3990   64.8920 C.3    20  ILE20       0.0266
      6  CG1       43.1220   14.3980   65.0880 C.3    20  ILE20       0.0019
      7  CG2       42.2910   12.0080   65.4690 C.3    20  ILE20       0.0020
      8  CD1       43.3510   14.7900   66.5340 C.3    20  ILE20       0.0001
      9  N         41.8440   14.9480   61.6730 N.am   21  ILE21      -0.1966
     10  CA        41.5510   16.2140   61.0270 C.3    21  ILE21       0.1727
     11  C         41.6320   15.9660   59.5270 C.2    21  ILE21       0.2616
     12  O         42.5490   15.3060   59.0640 O.2    21  ILE21      -0.2715
     13  CB        42.5440   17.3220   61.4850 C.3    21  ILE21       0.0290
     14  CG1       42.1220   18.6660   60.8950 C.3    21  ILE21       0.0022
     15  CG2       43.9940   16.9730   61.0730 C.3    21  ILE21       0.0023
     16  CD1       43.0430   19.8150   61.2890 C.3    21  ILE21       0.0001
     17  N         40.6680   16.4770   58.7710 N.am   22  SER22      -0.1950
     18  CA        40.6200   16.2670   57.3180 C.3    22  SER22       0.1924
     19  C         41.7200   16.9280   56.5050 C.2    22  SER22       0.2314
     20  O         42.2820   17.9520   56.8910 O.2    22  SER22      -0.2863
     21  CB        39.2920   16.7530   56.7440 C.3    22  SER22       0.2116
     22  OG        39.3590   18.1370   56.4320 O.3    22  SER22      -0.2180
     23  N         41.1790   20.7690   55.6570 N.3    25  ILE25      -0.1245
     24  CA        41.5560   21.7460   56.6730 C.3    25  ILE25       0.1561
     25  C         43.0820   21.8390   56.8170 C.2    25  ILE25       0.2260
     26  O         43.6200   22.9300   56.9790 O.2    25  ILE25      -0.2867
     27  CB        40.9310   21.3990   58.0440 C.3    25  ILE25       0.0252
     28  CG1       39.4090   21.4310   57.9360 C.3    25  ILE25       0.0019
     29  CG2       41.3710   22.4110   59.0950 C.3    25  ILE25       0.0019
     30  CD1       38.8690   22.7990   57.5270 C.3    25  ILE25       0.0001
     31  N         39.2900   23.6520   64.7400 N.3    48  ALA48      -0.1245
     32  CA        39.4010   22.2250   64.5110 C.3    48  ALA48       0.1562
     33  C         39.3640   21.5110   65.8470 C.2    48  ALA48       0.2260
     34  O         38.5540   20.6010   66.0460 O.2    48  ALA48      -0.2867
     35  CB        40.6840   21.9090   63.7740 C.3    48  ALA48       0.0290
     36  N         35.8920   21.7440   67.3940 N.3    51  GLU51      -0.1231
     37  CA        34.9180   20.8470   66.8120 C.3    51  GLU51       0.1699
     38  C         35.1650   19.4040   67.2980 C.2    51  GLU51       0.2592
     39  O         34.2180   18.7020   67.6600 O.2    51  GLU51      -0.2718
     40  CB        34.9610   20.9220   65.2780 C.3    51  GLU51       0.0402
     41  CG        34.1180   19.8510   64.6090 C.3    51  GLU51       0.1161
     42  CD        33.9020   20.0800   63.1200 C.2    51  GLU51       0.3649
     43  OE1       34.9040   20.2510   62.3870 O.co2  51  GLU51      -0.2457
     44  OE2       32.7230   20.0680   62.6800 O.co2  51  GLU51      -0.2457
     45  N         36.4270   18.9660   67.3140 N.am   52  ILE52      -0.1980
     46  CA        36.7540   17.6170   67.7810 C.3    52  ILE52       0.1595
     47  C         36.2510   17.4390   69.2170 C.2    52  ILE52       0.2287
     48  O         35.4520   16.5550   69.4980 O.2    52  ILE52      -0.2864
     49  CB        38.3040   17.3400   67.7350 C.3    52  ILE52       0.0276
     50  CG1       38.7580   17.0920   66.2930 C.3    52  ILE52       0.0022
     51  CG2       38.6620   16.1120   68.5600 C.3    52  ILE52       0.0022
     52  CD1       40.2690   17.2300   66.0700 C.3    52  ILE52       0.0001
     53  N         32.5830   10.1270   60.7340 N.3   229  PRO229     -0.2102
     54  CA        33.0650   11.3260   60.0470 C.3   229  PRO229      0.1504
     55  C         34.3220   11.6810   60.8330 C.2   229  PRO229      0.2576
     56  O         34.3070   11.6030   62.0640 O.2   229  PRO229     -0.2718
     57  CB        31.9450   12.3370   60.2870 C.3   229  PRO229      0.0282
     58  CG        30.7510   11.4830   60.4880 C.3   229  PRO229      0.0208
     59  CD        31.2580   10.3640   61.3240 C.3   229  PRO229      0.0893
     60  N         35.3870   12.0700   60.1370 N.am  230  ILE230     -0.1966
     61  CA        36.6640   12.3950   60.7660 C.3   230  ILE230      0.1727
     62  C         36.6710   13.1310   62.0980 C.2   230  ILE230      0.2616
     63  O         37.2960   12.6660   63.0360 O.2   230  ILE230     -0.2715
     64  CB        37.5750   13.1720   59.7780 C.3   230  ILE230      0.0290
     65  CG1       37.8730   12.2890   58.5600 C.3   230  ILE230      0.0022
     66  CG2       38.8840   13.5930   60.4630 C.3   230  ILE230      0.0023
     67  CD1       38.6220   12.9940   57.4610 C.3   230  ILE230      0.0001
     68  N         35.9860   14.2620   62.2030 N.am  231  TYR231     -0.1974
     69  CA        36.0050   15.0380   63.4400 C.3   231  TYR231      0.1639
     70  C         35.4220   14.3210   64.6630 C.2   231  TYR231      0.2290
     71  O         35.6900   14.7060   65.8050 O.2   231  TYR231     -0.2864
     72  CB        35.3000   16.3900   63.2170 C.3   231  TYR231      0.0560
     73  CG        33.7960   16.3960   63.4300 C.ar  231  TYR231     -0.0198
     74  CD1       33.2490   16.6040   64.7050 C.ar  231  TYR231     -0.0009
     75  CD2       32.9180   16.1600   62.3690 C.ar  231  TYR231     -0.0009
     76  CE1       31.8690   16.5640   64.9180 C.ar  231  TYR231      0.0417
     77  CE2       31.5470   16.1230   62.5660 C.ar  231  TYR231      0.0417
     78  CZ        31.0260   16.3170   63.8440 C.ar  231  TYR231      0.1957
     79  OH        29.6690   16.1960   64.0490 O.3   231  TYR231     -0.2866
@<TRIPOS>BOND
     1    23    24    1
     2    22    21    1
     3    19    20    2
     4    19    18    1
     5    24    25    1
     6    24    27    1
     7    21    18    1
     8    25    26    2
     9    18    17    1
    10    67    65    1
    11    30    28    1
    12    28    27    1
    13    27    29    1
    14    65    64    1
    15    17    11   am
    16    12    11    2
    17    11    10    1
    18    64    66    1
    19    64    61    1
    20    54    57    1
    21    54    53    1
    22    54    55    1
    23    60    61    1
    24    60    55   am
    25    57    58    1
    26    58    59    1
    27    53    59    1
    28    61    62    1
    29    55    56    2
    30    14    16    1
    31    14    13    1
    32    10    13    1
    33    10     9    1
    34    15    13    1
    35     9     3   am
    36    62    68   am
    37    62    63    2
    38    68    69    1
    39    75    77   ar
    40    75    73   ar
    41    43    42   ar
    42    77    78   ar
    43     1     2    1
    44    44    42   ar
    45     3     2    1
    46     3     4    2
    47    42    41    1
    48    72    73    1
    49    72    69    1
    50     2     5    1
    51    73    74   ar
    52    69    70    1
    53    35    32    1
    54    78    79    1
    55    78    76   ar
    56    32    31    1
    57    32    33    1
    58    41    40    1
    59    70    71    2
    60    74    76   ar
    61     5     6    1
    62     5     7    1
    63     6     8    1
    64    40    37    1
    65    33    34    2
    66    52    50    1
    67    50    49    1
    68    37    38    1
    69    37    36    1
    70    38    45   am
    71    38    39    2
    72    45    46    1
    73    49    46    1
    74    49    51    1
    75    46    47    1
    76    47    48    2
