@<TRIPOS>MOLECULE
tmp/1tq6A00.pdb
 156 148 0 0 0
SMALL
GASTEIGER

@<TRIPOS>ATOM
      1  N          5.8780   20.1630   40.8090 N.3    66  GLU66      -0.1231
      2  CA         5.5830   21.1290   41.8570 C.3    66  GLU66       0.1699
      3  C          6.8140   21.9600   42.1770 C.2    66  GLU66       0.2593
      4  O          7.9340   21.5960   41.8180 O.2    66  GLU66      -0.2718
      5  CB         5.0730   20.4200   43.1160 C.3    66  GLU66       0.0402
      6  CG         3.7830   19.6410   42.8880 C.3    66  GLU66       0.1161
      7  CD         2.8900   20.2840   41.8280 C.2    66  GLU66       0.3649
      8  OE1        2.6050   21.5000   41.9320 O.co2  66  GLU66      -0.2457
      9  OE2        2.4720   19.5710   40.8880 O.co2  66  GLU66      -0.2457
     10  N          6.6030   23.0890   42.8420 N.am   67  THR67      -0.1939
     11  CA         7.7110   23.9670   43.1950 C.3    67  THR67       0.2028
     12  C          8.7110   23.2200   44.0790 C.2    67  THR67       0.2643
     13  O          8.3430   22.2940   44.8080 O.2    67  THR67      -0.2714
     14  CB         7.2000   25.2260   43.9330 C.3    67  THR67       0.1808
     15  OG1        6.2330   25.8970   43.1160 O.3    67  THR67      -0.2208
     16  CG2        8.3380   26.1780   44.2240 C.3    67  THR67       0.0379
     17  N          9.9790   23.6120   43.9970 N.am   68  GLY68      -0.1939
     18  CA        11.0030   22.9640   44.7970 C.3    68  GLY68       0.2014
     19  C         11.3130   21.5550   44.3360 C.2    68  GLY68       0.2640
     20  O         11.9680   20.7900   45.0440 O.2    68  GLY68      -0.2714
     21  N         10.8430   21.2100   43.1430 N.am   69  SER69      -0.1935
     22  CA        11.0780   19.8870   42.5830 C.3    69  SER69       0.2055
     23  C         12.4570   19.7970   41.9070 C.2    69  SER69       0.2644
     24  O         12.9960   18.7050   41.7050 O.2    69  SER69      -0.2714
     25  CB         9.9780   19.5570   41.5720 C.3    69  SER69       0.2130
     26  OG         9.9120   20.5500   40.5620 O.3    69  SER69      -0.2179
     27  N         13.0220   20.9510   41.5690 N.am   70  GLY70      -0.1939
     28  CA        14.3170   20.9870   40.9130 C.3    70  GLY70       0.2014
     29  C         14.1340   21.3710   39.4610 C.2    70  GLY70       0.2639
     30  O         15.0800   21.3820   38.6760 O.2    70  GLY70      -0.2714
     31  N         12.8930   21.7040   39.1250 N.am   71  LYS71      -0.1963
     32  CA        12.4890   22.0810   37.7780 C.3    71  LYS71       0.1728
     33  C         13.3140   23.1990   37.1370 C.2    71  LYS71       0.2617
     34  O         13.6040   23.1540   35.9430 O.2    71  LYS71      -0.2715
     35  CB        11.0170   22.4900   37.7920 C.3    71  LYS71       0.0311
     36  CG        10.3110   22.3040   36.4670 C.3    71  LYS71       0.0038
     37  CD         9.0690   23.1700   36.3730 C.3    71  LYS71       0.0206
     38  CE         8.1360   22.9850   37.5660 C.3    71  LYS71       0.1093
     39  NZ         6.9450   23.8820   37.4600 N.3    71  LYS71      -0.1314
     40  N         13.6870   24.2030   37.9200 N.am   72  SER72      -0.1936
     41  CA        14.4570   25.3260   37.3940 C.3    72  SER72       0.2055
     42  C         15.9080   24.9660   37.1530 C.2    72  SER72       0.2643
     43  O         16.4370   25.1890   36.0610 O.2    72  SER72      -0.2714
     44  CB        14.3930   26.5180   38.3490 C.3    72  SER72       0.2130
     45  OG        13.1080   27.1010   38.3340 O.3    72  SER72      -0.2179
     46  N         16.5450   24.4260   38.1900 N.am   73  SER73      -0.1949
     47  CA        17.9400   24.0140   38.1160 C.3    73  SER73       0.1924
     48  C         18.1160   23.0710   36.9300 C.2    73  SER73       0.2314
     49  O         19.1190   23.1290   36.2220 O.2    73  SER73      -0.2863
     50  CB        18.3420   23.3030   39.4080 C.3    73  SER73       0.2116
     51  OG        18.0570   24.1030   40.5430 O.3    73  SER73      -0.2180
     52  N         22.0250   29.1790   37.9840 N.3    83  ASN83      -0.1240
     53  CA        20.7220   29.3710   38.6070 C.3    83  ASN83       0.1653
     54  C         20.4660   30.8230   39.0150 C.2    83  ASN83       0.2266
     55  O         19.7160   31.0860   39.9560 O.2    83  ASN83      -0.2867
     56  CB        20.5980   28.4500   39.8230 C.3    83  ASN83       0.1155
     57  CG        20.2450   27.0240   39.4390 C.2    83  ASN83       0.2627
     58  OD1       20.6740   26.5220   38.4010 O.2    83  ASN83      -0.2716
     59  ND2       19.4650   26.3620   40.2830 N.am   83  ASN83      -0.0877
     60  N         13.2840   30.9490   37.1760 N.3    90  LYS90      -0.1231
     61  CA        13.2160   31.2090   38.6080 C.3    90  LYS90       0.1693
     62  C         12.1370   30.3330   39.2390 C.2    90  LYS90       0.2593
     63  O         11.2440   29.8360   38.5500 O.2    90  LYS90      -0.2718
     64  CB        12.8980   32.6890   38.8450 C.3    90  LYS90       0.0285
     65  CG        13.5050   33.2880   40.1040 C.3    90  LYS90       0.0035
     66  CD        13.1170   34.7570   40.2340 C.3    90  LYS90       0.0206
     67  CE        13.8900   35.4590   41.3400 C.3    90  LYS90       0.1093
     68  NZ        15.3410   35.5760   41.0220 N.3    90  LYS90      -0.1314
     69  N         12.2250   30.1520   40.5500 N.am   91  THR91      -0.1939
     70  CA        11.2620   29.3370   41.2780 C.3    91  THR91       0.2028
     71  C          9.9200   30.0440   41.4640 C.2    91  THR91       0.2642
     72  O          9.8600   31.2630   41.6350 O.2    91  THR91      -0.2714
     73  CB        11.8190   28.9450   42.6630 C.3    91  THR91       0.1808
     74  OG1       12.9580   28.0920   42.4920 O.3    91  THR91      -0.2208
     75  CG2       10.7660   28.2220   43.4840 C.3    91  THR91       0.0379
     76  N          8.8450   29.2630   41.4150 N.am   92  GLY92      -0.1954
     77  CA         7.5100   29.8010   41.5900 C.3    92  GLY92       0.1869
     78  C          7.1120   30.9050   40.6300 C.2    92  GLY92       0.2309
     79  O          5.9470   31.3010   40.5950 O.2    92  GLY92      -0.2863
     80  N          6.7760   30.8850   37.3580 N.3    94  VAL94      -0.1231
     81  CA         5.7800   30.3730   36.4190 C.3    94  VAL94       0.1692
     82  C          4.5340   29.8770   37.1570 C.2    94  VAL94       0.2591
     83  O          3.4340   29.8570   36.6010 O.2    94  VAL94      -0.2718
     84  CB         6.3630   29.2050   35.5680 C.3    94  VAL94       0.0266
     85  CG1        7.6120   29.6750   34.8210 C.3    94  VAL94       0.0020
     86  CG2        6.6980   28.0150   36.4620 C.3    94  VAL94       0.0020
     87  N          4.7240   29.4810   38.4130 N.am   95  GLU95      -0.1979
     88  CA         3.6400   28.9760   39.2500 C.3    95  GLU95       0.1602
     89  C          2.6160   30.0750   39.5030 C.2    95  GLU95       0.2287
     90  O          1.4110   29.8630   39.3510 O.2    95  GLU95      -0.2864
     91  CB         4.2020   28.4770   40.5830 C.3    95  GLU95       0.0415
     92  CG         5.4070   27.5550   40.4390 C.3    95  GLU95       0.1163
     93  CD         5.0620   26.2130   39.8250 C.2    95  GLU95       0.3649
     94  OE1        4.0290   26.1160   39.1370 O.co2  95  GLU95      -0.2457
     95  OE2        5.8340   25.2530   40.0190 O.co2  95  GLU95      -0.2457
     96  N          8.8610   25.5160   30.6950 N.3   115  ASP115     -0.1239
     97  CA         8.5920   25.3440   32.1120 C.3   115  ASP115      0.1674
     98  C          7.0840   25.4370   32.3350 C.2   115  ASP115      0.2266
     99  O          6.5040   26.5160   32.2020 O.2   115  ASP115     -0.2867
    100  CB         9.2860   26.4370   32.9190 C.3   115  ASP115      0.1410
    101  CG         9.3160   26.1290   34.4020 C.2   115  ASP115      0.3668
    102  OD1        8.3250   25.5740   34.9240 O.co2 115  ASP115     -0.2456
    103  OD2       10.3330   26.4500   35.0500 O.co2 115  ASP115     -0.2456
    104  N         14.7740   13.9500   41.3540 N.3   172  THR172     -0.1203
    105  CA        15.9370   14.7120   41.7800 C.3   172  THR172      0.1994
    106  C         16.2970   14.6070   43.2610 C.2   172  THR172      0.2617
    107  O         15.6310   13.9200   44.0350 O.2   172  THR172     -0.2717
    108  CB        15.7500   16.1940   41.4160 C.3   172  THR172      0.1784
    109  OG1       14.4040   16.5910   41.7050 O.3   172  THR172     -0.2211
    110  CG2       16.0160   16.4120   39.9430 C.3   172  THR172      0.0376
    111  N         17.3770   15.2850   43.6320 N.am  173  LYS173     -0.1979
    112  CA        17.8560   15.3290   45.0070 C.3   173  LYS173      0.1596
    113  C         18.1740   13.9710   45.6200 C.2   173  LYS173      0.2287
    114  O         18.1250   13.8020   46.8440 O.2   173  LYS173     -0.2864
    115  CB        16.8390   16.0720   45.8720 C.3   173  LYS173      0.0298
    116  CG        16.3860   17.3730   45.2340 C.3   173  LYS173      0.0038
    117  CD        15.7060   18.2950   46.2110 C.3   173  LYS173      0.0206
    118  CE        15.4480   19.6410   45.5710 C.3   173  LYS173      0.1093
    119  NZ        14.8660   20.5840   46.5530 N.3   173  LYS173     -0.1314
    120  N         20.8310   12.7490   46.1170 N.3   175  ASP175     -0.1225
    121  CA        21.9570   12.9720   47.0130 C.3   175  ASP175      0.1805
    122  C         21.4800   13.1070   48.4560 C.2   175  ASP175      0.2598
    123  O         22.1320   12.6290   49.3840 O.2   175  ASP175     -0.2718
    124  CB        22.7000   14.2440   46.5980 C.3   175  ASP175      0.1424
    125  CG        21.7730   15.4440   46.4650 C.2   175  ASP175      0.3668
    126  OD1       20.8650   15.4040   45.6110 O.co2 175  ASP175     -0.2456
    127  OD2       21.9480   16.4290   47.2120 O.co2 175  ASP175     -0.2456
    128  N         20.3390   13.7670   48.6360 N.am  176  SER176     -0.1952
    129  CA        19.7660   13.9740   49.9610 C.3   176  SER176      0.1924
    130  C         19.4830   12.6550   50.6420 C.2   176  SER176      0.2314
    131  O         19.7600   12.4790   51.8220 O.2   176  SER176     -0.2863
    132  CB        18.4570   14.7620   49.8630 C.3   176  SER176      0.2116
    133  OG        18.6940   16.1000   49.4700 O.3   176  SER176     -0.2180
    134  N         21.0550   14.2100   40.5060 N.3   220  SER220     -0.1202
    135  CA        21.2850   15.3220   41.4110 C.3   220  SER220      0.2020
    136  C         21.6960   16.5530   40.6110 C.2   220  SER220      0.2619
    137  O         22.5000   16.4610   39.6810 O.2   220  SER220     -0.2717
    138  CB        22.3730   14.9650   42.4320 C.3   220  SER220      0.2103
    139  OG        23.5850   14.5980   41.7970 O.3   220  SER220     -0.2182
    140  N         21.1130   17.6990   40.9530 N.am  221  ASN221     -0.1960
    141  CA        21.4430   18.9550   40.2900 C.3   221  ASN221      0.1819
    142  C         22.6090   19.5700   41.0470 C.2   221  ASN221      0.2621
    143  O         23.2230   20.5390   40.5970 O.2   221  ASN221     -0.2715
    144  CB        20.2510   19.9150   40.3030 C.3   221  ASN221      0.1195
    145  CG        19.2580   19.6270   39.1940 C.2   221  ASN221      0.2630
    146  OD1       19.6220   19.5790   38.0190 O.2   221  ASN221     -0.2716
    147  ND2       17.9940   19.4450   39.5610 N.am  221  ASN221     -0.0877
    148  N         22.8990   18.9930   42.2100 N.am  222  LYS222     -0.1977
    149  CA        23.9990   19.4410   43.0490 C.3   222  LYS222      0.1596
    150  C         25.2090   18.5470   42.8070 C.2   222  LYS222      0.2287
    151  O         26.0910   18.4200   43.6580 O.2   222  LYS222     -0.2864
    152  CB        23.5850   19.4080   44.5200 C.3   222  LYS222      0.0298
    153  CG        22.6910   20.5730   44.9060 C.3   222  LYS222      0.0038
    154  CD        23.4640   21.8810   44.8830 C.3   222  LYS222      0.0206
    155  CE        22.5420   23.0820   44.8760 C.3   222  LYS222      0.1093
    156  NZ        21.7480   23.1480   43.6150 N.3   222  LYS222     -0.1314
@<TRIPOS>BOND
     1    96    97    1
     2    97    98    1
     3    97   100    1
     4    99    98    2
     5   100   101    1
     6   101   102   ar
     7   101   103   ar
     8    85    84    1
     9    84    81    1
    10    84    86    1
    11    34    33    2
    12    43    42    2
    13    49    48    2
    14    37    36    1
    15    37    38    1
    16    81    82    1
    17    81    80    1
    18    36    35    1
    19    83    82    2
    20    48    47    1
    21    33    32    1
    22    33    40   am
    23    42    41    1
    24    42    46   am
    25    82    87   am
    26    60    61    1
    27    41    40    1
    28    41    44    1
    29    39    38    1
    30    32    35    1
    31    32    31    1
    32    52    53    1
    33   146   145    2
    34    47    46    1
    35    47    50    1
    36    45    44    1
    37    58    57    2
    38    87    88    1
    39    63    62    2
    40    53    54    1
    41    53    56    1
    42    61    64    1
    43    61    62    1
    44    30    29    2
    45    64    65    1
    46    54    55    2
    47    31    29   am
    48    94    93   ar
    49   145   147   am
    50   145   144    1
    51    62    69   am
    52    88    89    1
    53    88    91    1
    54    90    89    2
    55    50    51    1
    56    57    56    1
    57    57    59   am
    58    29    28    1
    59   137   136    2
    60    93    95   ar
    61    93    92    1
    62   110   108    1
    63    65    66    1
    64    66    67    1
    65   141   144    1
    66   141   140    1
    67   141   142    1
    68    92    91    1
    69   134   135    1
    70    69    70    1
    71    26    25    1
    72    79    78    2
    73   143   142    2
    74   136   140   am
    75   136   135    1
    76    78    77    1
    77     1     2    1
    78     9     7   ar
    79    28    27    1
    80    68    67    1
    81   142   148   am
    82    70    71    1
    83    70    73    1
    84   104   105    1
    85   135   138    1
    86    76    71   am
    87    76    77    1
    88   108   109    1
    89   108   105    1
    90    71    72    2
    91    27    23   am
    92    25    22    1
    93    24    23    2
    94   105   106    1
    95   139   138    1
    96     4     3    2
    97     7     8   ar
    98     7     6    1
    99     2     3    1
   100     2     5    1
   101    23    22    1
   102     3    10   am
   103   148   149    1
   104    74    73    1
   105    22    21    1
   106    73    75    1
   107   150   149    1
   108   150   151    2
   109    10    11    1
   110     6     5    1
   111   149   152    1
   112    15    14    1
   113    21    19   am
   114    11    14    1
   115    11    12    1
   116   106   111   am
   117   106   107    2
   118   156   155    1
   119   111   112    1
   120    14    16    1
   121    17    12   am
   122    17    18    1
   123    12    13    2
   124    19    18    1
   125    19    20    2
   126   152   153    1
   127   155   154    1
   128   154   153    1
   129   112   113    1
   130   112   115    1
   131   116   115    1
   132   116   117    1
   133   118   117    1
   134   118   119    1
   135   126   125   ar
   136   113   114    2
   137   120   121    1
   138   125   124    1
   139   125   127   ar
   140   124   121    1
   141   121   122    1
   142   122   128   am
   143   122   123    2
   144   128   129    1
   145   133   132    1
   146   132   129    1
   147   129   130    1
   148   130   131    2
