@<TRIPOS>MOLECULE
tmp/1tq9A00.pdb
 149 144 0 0 0
SMALL
GASTEIGER

@<TRIPOS>ATOM
      1  N         10.6300   -2.3730   13.4760 N.3    39  LYS39      -0.1231
      2  CA        10.3390   -1.3800   14.5070 C.3    39  LYS39       0.1678
      3  C          8.8970   -1.7080   14.8550 C.2    39  LYS39       0.2434
      4  O          8.0440   -1.7550   13.9820 O.2    39  LYS39      -0.2733
      5  CB        10.4650    0.0560   13.9730 C.3    39  LYS39       0.0284
      6  CG        10.3920    1.0690   15.0840 C.3    39  LYS39       0.0035
      7  CD        10.8770    2.4500   14.7110 C.3    39  LYS39       0.0206
      8  CE        10.0490    3.5140   15.4740 C.3    39  LYS39       0.1093
      9  NZ        10.5570    4.9070   15.3340 N.3    39  LYS39      -0.1314
     10  N          8.6100   -1.9220   16.1450 N.am   40  PRO40      -0.2718
     11  CA         7.2860   -2.2750   16.6770 C.3    40  PRO40       0.1535
     12  C          6.1470   -1.3160   16.4170 C.2    40  PRO40       0.2598
     13  O          5.0690   -1.7240   15.9680 O.2    40  PRO40      -0.2715
     14  CB         7.5270   -2.4550   18.1760 C.3    40  PRO40       0.0310
     15  CG         9.0120   -2.5180   18.3330 C.3    40  PRO40       0.0237
     16  CD         9.6010   -1.7440   17.2150 C.3    40  PRO40       0.0939
     17  N          6.3780   -0.0440   16.7300 N.am   41  VAL41      -0.1964
     18  CA         5.3680    0.9850   16.5230 C.3    41  VAL41       0.1727
     19  C          6.0200    2.2620   16.0130 C.2    41  VAL41       0.2616
     20  O          7.1300    2.5990   16.4170 O.2    41  VAL41      -0.2715
     21  CB         4.6100    1.3060   17.8370 C.3    41  VAL41       0.0290
     22  CG1        3.3180    2.0610   17.5260 C.3    41  VAL41       0.0023
     23  CG2        4.3110    0.0200   18.5900 C.3    41  VAL41       0.0023
     24  N          5.3280    2.9630   15.1180 N.am   42  ASN42      -0.1958
     25  CA         5.8430    4.2140   14.5740 C.3    42  ASN42       0.1819
     26  C          4.7380    5.0710   14.0370 C.2    42  ASN42       0.2621
     27  O          3.8200    4.5670   13.3810 O.2    42  ASN42      -0.2715
     28  CB         6.8310    3.9590   13.4510 C.3    42  ASN42       0.1195
     29  CG         7.6150    5.1880   13.1020 C.2    42  ASN42       0.2630
     30  OD1        8.5290    5.5910   13.8390 O.2    42  ASN42      -0.2716
     31  ND2        7.2690    5.8060   11.9840 N.am   42  ASN42      -0.0877
     32  N          4.8340    6.3730   14.3000 N.am   43  THR43      -0.1951
     33  CA         3.8190    7.3200   13.8340 C.3    43  THR43       0.1897
     34  C          4.3870    8.2220   12.7300 C.2    43  THR43       0.2313
     35  O          5.5320    8.6880   12.8060 O.2    43  THR43      -0.2863
     36  CB         3.2890    8.2010   15.0090 C.3    43  THR43       0.1794
     37  OG1        2.6220    7.3740   15.9790 O.3    43  THR43      -0.2208
     38  CG2        2.3140    9.2480   14.4990 C.3    43  THR43       0.0378
     39  N          7.2220   13.3950   29.4500 N.3    63  CYS63      -0.1221
     40  CA         7.1950   12.2830   28.5050 C.3    63  CYS63       0.1808
     41  C          6.6510   11.0310   29.1860 C.2    63  CYS63       0.2601
     42  O          6.4630   10.9910   30.4050 O.2    63  CYS63      -0.2717
     43  CB         8.6030   12.0120   27.9650 C.3    63  CYS63       0.0970
     44  SG         9.4370   13.4960   27.2820 S.3    63  CYS63      -0.0800
     45  N          6.4020    9.9990   28.3990 N.am   64  LYS64      -0.1965
     46  CA         5.8820    8.7650   28.9570 C.3    64  LYS64       0.1728
     47  C          6.8280    8.1520   29.9860 C.2    64  LYS64       0.2616
     48  O          6.3870    7.7050   31.0400 O.2    64  LYS64      -0.2715
     49  CB         5.5940    7.7700   27.8340 C.3    64  LYS64       0.0311
     50  CG         4.3340    6.9700   28.0400 C.3    64  LYS64       0.0038
     51  CD         4.1020    6.0260   26.8870 C.3    64  LYS64       0.0206
     52  CE         3.1150    6.6440   25.9120 C.3    64  LYS64       0.1093
     53  NZ         1.8370    5.8840   25.8270 N.3    64  LYS64      -0.1314
     54  N          8.1240    8.1550   29.6900 N.am   65  ASN65      -0.1972
     55  CA         9.1060    7.5710   30.5980 C.3    65  ASN65       0.1688
     56  C          9.5150    8.4610   31.7780 C.2    65  ASN65       0.2292
     57  O         10.3230    8.0680   32.6160 O.2    65  ASN65      -0.2864
     58  CB        10.3520    7.1520   29.8220 C.3    65  ASN65       0.1181
     59  CG        11.2680    8.3080   29.5140 C.2    65  ASN65       0.2629
     60  OD1       10.8570    9.4690   29.5490 O.2    65  ASN65      -0.2716
     61  ND2       12.5180    8.0060   29.2140 N.am   65  ASN65      -0.0877
     62  N         10.7640   11.6890   31.3750 N.3    67  GLN67      -0.1245
     63  CA        11.5900   12.8180   30.9580 C.3    67  GLN67       0.1566
     64  C         10.6900   14.0450   30.8180 C.2    67  GLN67       0.2260
     65  O          9.5000   13.9240   30.5570 O.2    67  GLN67      -0.2867
     66  CB        12.3310   12.4920   29.6720 C.3    67  GLN67       0.0367
     67  CG        13.6750   11.8670   29.9820 C.3    67  GLN67       0.0905
     68  CD        14.3680   11.3110   28.7870 C.2    67  GLN67       0.2608
     69  OE1       14.0250   10.2310   28.2970 O.2    67  GLN67      -0.2717
     70  NE2       15.3590   12.0260   28.3090 N.am   67  GLN67      -0.0878
     71  N         11.2690   16.9240   28.7680 N.3    69  ASN69      -0.1240
     72  CA        11.4850   17.8230   27.6470 C.3    69  ASN69       0.1653
     73  C         10.4370   17.5190   26.5760 C.2    69  ASN69       0.2266
     74  O         10.7180   17.5800   25.3930 O.2    69  ASN69      -0.2867
     75  CB        12.8940   17.6530   27.0910 C.3    69  ASN69       0.1155
     76  CG        13.1760   16.2440   26.6650 C.2    69  ASN69       0.2627
     77  OD1       12.6330   15.2910   27.2390 O.2    69  ASN69      -0.2716
     78  ND2       14.0240   16.0910   25.6490 N.am   69  ASN69      -0.0877
     79  N         -0.8120    5.8230   12.4070 N.3    81  ASP81      -0.1239
     80  CA        -0.2130    4.9370   13.3770 C.3    81  ASP81       0.1674
     81  C          0.2130    3.6240   12.7030 C.2    81  ASP81       0.2266
     82  O         -0.6110    2.9500   12.0980 O.2    81  ASP81      -0.2867
     83  CB        -1.2310    4.6560   14.4910 C.3    81  ASP81       0.1410
     84  CG        -0.7290    3.6380   15.4920 C.2    81  ASP81       0.3668
     85  OD1       -1.2000    2.4650   15.4400 O.co2  81  ASP81      -0.2456
     86  OD2        0.1420    4.0210   16.3190 O.co2  81  ASP81      -0.2456
     87  N          1.6710   -0.1070   13.3670 N.3    83  ARG83      -0.1245
     88  CA         1.8620   -1.0700   14.4300 C.3    83  ARG83       0.1563
     89  C          2.0060   -2.4560   13.8520 C.2    83  ARG83       0.2260
     90  O          1.2530   -2.8320   12.9590 O.2    83  ARG83      -0.2867
     91  CB         0.6340   -1.0410   15.3280 C.3    83  ARG83       0.0307
     92  CG         0.8730   -1.2820   16.7760 C.3    83  ARG83       0.0489
     93  CD        -0.2320   -0.6040   17.5490 C.3    83  ARG83       0.2205
     94  NE         0.2220    0.6750   18.0770 N.pl3  83  ARG83      -0.0865
     95  CZ        -0.5650    1.5690   18.6630 C.cat  83  ARG83       0.5346
     96  NH1       -1.8690    1.3250   18.8100 N.pl3  83  ARG83       0.1354
     97  NH2       -0.0410    2.7090   19.1040 N.pl3  83  ARG83       0.1354
     98  N          9.4300   15.0490   21.9750 N.3   107  ALA107     -0.1245
     99  CA        10.4880   15.5340   22.8400 C.3   107  ALA107      0.1562
    100  C         11.3100   16.4450   21.9570 C.2   107  ALA107      0.2260
    101  O         11.6000   16.1120   20.8000 O.2   107  ALA107     -0.2867
    102  CB        11.3420   14.3900   23.3420 C.3   107  ALA107      0.0290
    103  N         13.1150   15.5760   18.3670 N.3   116  VAL116     -0.1231
    104  CA        14.1270   14.5240   18.3310 C.3   116  VAL116      0.1692
    105  C         13.5480   13.1720   18.7560 C.2   116  VAL116      0.2592
    106  O         14.2730   12.1810   18.8760 O.2   116  VAL116     -0.2718
    107  CB        15.3250   14.8820   19.2420 C.3   116  VAL116      0.0266
    108  CG1       15.9290   16.2220   18.8010 C.3   116  VAL116      0.0020
    109  CG2       14.8850   14.9510   20.6860 C.3   116  VAL116      0.0020
    110  N         12.2370   13.1150   18.9600 N.am  117  HIS117     -0.1962
    111  CA        11.6260   11.8690   19.3580 C.3   117  HIS117      0.1787
    112  C         10.1180   12.0270   19.3640 C.2   117  HIS117      0.2620
    113  O          9.6090   13.0900   19.7260 O.2   117  HIS117     -0.2715
    114  CB        12.1820   11.4920   20.7500 C.3   117  HIS117      0.0785
    115  CG        11.2090   10.7770   21.6370 C.ar  117  HIS117      0.0821
    116  ND1       10.9580    9.4250   21.5350 N.ar  117  HIS117     -0.2267
    117  CD2       10.4000   11.2370   22.6240 C.ar  117  HIS117      0.1154
    118  CE1       10.0330    9.0820   22.4150 C.ar  117  HIS117      0.1986
    119  NE2        9.6780   10.1650   23.0900 N.ar  117  HIS117     -0.2212
    120  N          9.3870   11.0010   18.9440 N.am  118  PHE118     -0.1960
    121  CA         7.9300   11.0830   18.9760 C.3   118  PHE118      0.1771
    122  C          7.4890   10.3100   20.2200 C.2   118  PHE118      0.2620
    123  O          7.8150    9.1280   20.3650 O.2   118  PHE118     -0.2715
    124  CB         7.3150   10.4610   17.7170 C.3   118  PHE118      0.0574
    125  CG         5.8150   10.5900   17.6460 C.ar  118  PHE118     -0.0200
    126  CD1        4.9960    9.6560   18.2460 C.ar  118  PHE118     -0.0042
    127  CD2        5.2250   11.6520   16.9690 C.ar  118  PHE118     -0.0042
    128  CE1        3.5940    9.7610   18.1820 C.ar  118  PHE118     -0.0003
    129  CE2        3.8100   11.7710   16.8960 C.ar  118  PHE118     -0.0003
    130  CZ         2.9980   10.8210   17.5040 C.ar  118  PHE118     -0.0000
    131  N          6.7450   10.9570   21.1130 N.am  119  ASP119     -0.1957
    132  CA         6.3340   10.2980   22.3650 C.3   119  ASP119      0.1840
    133  C          4.9970    9.5790   22.3530 C.2   119  ASP119      0.2622
    134  O          4.8990    8.4240   22.7660 O.2   119  ASP119     -0.2715
    135  CB         6.3160   11.3190   23.5210 C.3   119  ASP119      0.1450
    136  CG         6.5260   10.6750   24.8690 C.2   119  ASP119      0.3671
    137  OD1        7.5780   10.0190   25.0580 O.co2 119  ASP119     -0.2456
    138  OD2        5.6430   10.8280   25.7350 O.co2 119  ASP119     -0.2456
    139  N          3.9610   10.2770   21.8920 N.am  120  ALA120     -0.1963
    140  CA         2.6220    9.7200   21.8760 C.3   120  ALA120      0.1728
    141  C          1.6690   10.6860   21.1860 C.2   120  ALA120      0.2616
    142  O          2.0780   11.7620   20.7750 O.2   120  ALA120     -0.2715
    143  CB         2.1730    9.4950   23.3030 C.3   120  ALA120      0.0334
    144  N          0.4080   10.2760   21.0500 N.am  121  SER121     -0.1950
    145  CA        -0.6560   11.1100   20.4680 C.3   121  SER121      0.1924
    146  C         -1.7700   11.1410   21.5140 C.2   121  SER121      0.2314
    147  O         -1.8480   10.2500   22.3570 O.2   121  SER121     -0.2863
    148  CB        -1.1860   10.5280   19.1530 C.3   121  SER121      0.2116
    149  OG        -1.4230    9.1440   19.2530 O.3   121  SER121     -0.2180
@<TRIPOS>BOND
     1    31    29   am
     2    82    81    2
     3    79    80    1
     4    81    80    1
     5    34    35    2
     6    34    33    1
     7    90    89    2
     8    29    28    1
     9    29    30    2
    10    87    88    1
    11    80    83    1
    12    27    26    2
    13    28    25    1
    14     1     2    1
    15    33    32    1
    16    33    36    1
    17    89    88    1
    18     5     2    1
    19     5     6    1
    20     4     3    2
    21    26    32   am
    22    26    25    1
    23    88    91    1
    24    83    84    1
    25    38    36    1
    26     2     3    1
    27    25    24    1
    28     7     6    1
    29     7     8    1
    30     3    10   am
    31    36    37    1
    32    24    19   am
    33    91    92    1
    34     9     8    1
    35    85    84   ar
    36    84    86   ar
    37    13    12    2
    38    19    20    2
    39    19    18    1
    40    10    11    1
    41    10    16    1
    42    12    11    1
    43    12    17   am
    44    18    17    1
    45    18    21    1
    46    11    14    1
    47    92    93    1
    48   129   127   ar
    49   129   130   ar
    50   127   125   ar
    51    16    15    1
    52   130   128   ar
    53    22    21    1
    54    93    94    1
    55   125   124    1
    56   125   126   ar
    57   124   121    1
    58    21    23    1
    59    94    95    2
    60    14    15    1
    61   128   126   ar
    62   104   103    1
    63   104   105    1
    64   104   107    1
    65    95    96    1
    66    95    97    1
    67   105   106    2
    68   105   110   am
    69   108   107    1
    70   120   121    1
    71   120   112   am
    72   110   111    1
    73   121   122    1
    74   148   149    1
    75   148   145    1
    76   107   109    1
    77   111   112    1
    78   111   114    1
    79   112   113    2
    80   122   123    2
    81   122   131   am
    82   145   144    1
    83   145   146    1
    84   114   115    1
    85   142   141    2
    86   101   100    2
    87   144   141   am
    88   131   132    1
    89   141   140    1
    90   146   147    2
    91   116   115   ar
    92   116   118   ar
    93   115   117   ar
    94   140   139    1
    95   140   143    1
    96   139   133   am
    97   100    99    1
    98    98    99    1
    99   133   132    1
   100   133   134    2
   101   132   135    1
   102   118   119   ar
   103   117   119   ar
   104    99   102    1
   105   135   136    1
   106   136   137   ar
   107   136   138   ar
   108    74    73    2
   109    78    76   am
   110    53    52    1
   111    52    51    1
   112    73    72    1
   113    76    75    1
   114    76    77    2
   115    51    50    1
   116    75    72    1
   117    44    43    1
   118    72    71    1
   119    49    50    1
   120    49    46    1
   121    43    40    1
   122    69    68    2
   123    70    68   am
   124    45    46    1
   125    45    41   am
   126    40    41    1
   127    40    39    1
   128    68    67    1
   129    46    47    1
   130    41    42    2
   131    61    59   am
   132    59    60    2
   133    59    58    1
   134    66    67    1
   135    66    63    1
   136    54    47   am
   137    54    55    1
   138    58    55    1
   139    47    48    2
   140    65    64    2
   141    55    56    1
   142    64    63    1
   143    63    62    1
   144    56    57    2
