@<TRIPOS>MOLECULE
tmp/1tqfA00.pdb
 218 207 0 0 0
SMALL
GASTEIGER

@<TRIPOS>ATOM
      1  N         39.3650   49.2460   11.7630 N.3    12  GLY12      -0.1225
      2  CA        38.4070   49.3980   10.6810 C.3    12  GLY12       0.1811
      3  C         37.1460   50.1120   11.1550 C.2    12  GLY12       0.2280
      4  O         36.1110   50.0730   10.4900 O.2    12  GLY12      -0.2866
      5  N         35.5390   52.3800    8.5770 N.3    15  GLY15      -0.1210
      6  CA        36.1290   51.9090    7.3460 C.3    15  GLY15       0.1956
      7  C         35.3430   50.9170    6.5190 C.2    15  GLY15       0.2612
      8  O         34.1120   50.8840    6.5250 O.2    15  GLY15      -0.2717
      9  N         36.0940   50.0880    5.8070 N.am   16  GLN16      -0.1965
     10  CA        35.5300   49.0990    4.9110 C.3    16  GLN16       0.1733
     11  C         35.8740   47.6620    5.3040 C.2    16  GLN16       0.2617
     12  O         36.3780   46.8860    4.4950 O.2    16  GLN16      -0.2715
     13  CB        36.0180   49.4210    3.4940 C.3    16  GLN16       0.0408
     14  CG        35.6360   50.8460    3.0600 C.3    16  GLN16       0.0908
     15  CD        36.3890   51.3400    1.8360 C.2    16  GLN16       0.2608
     16  OE1       37.5900   51.6030    1.8910 O.2    16  GLN16      -0.2717
     17  NE2       35.6810   51.4720    0.7240 N.am   16  GLN16      -0.0878
     18  N         35.5860   47.3170    6.5540 N.am   17  GLY17      -0.1940
     19  CA        35.8470   45.9710    7.0340 C.3    17  GLY17       0.2014
     20  C         36.7110   45.9710    8.2730 C.2    17  GLY17       0.2638
     21  O         37.6980   46.7060    8.3390 O.2    17  GLY17      -0.2714
     22  N         36.3360   45.1520    9.2560 N.am   18  TYR18      -0.1973
     23  CA        37.0850   45.0470   10.5040 C.3    18  TYR18       0.1639
     24  C         38.1270   43.9560   10.3480 C.2    18  TYR18       0.2290
     25  O         37.8230   42.8610    9.8770 O.2    18  TYR18      -0.2864
     26  CB        36.1490   44.7210   11.6740 C.3    18  TYR18       0.0560
     27  CG        35.1520   45.8170   11.9770 C.ar   18  TYR18      -0.0198
     28  CD1       33.9190   45.8760   11.3210 C.ar   18  TYR18      -0.0009
     29  CD2       35.4520   46.8110   12.9050 C.ar   18  TYR18      -0.0009
     30  CE1       33.0110   46.9050   11.5880 C.ar   18  TYR18       0.0417
     31  CE2       34.5590   47.8390   13.1780 C.ar   18  TYR18       0.0417
     32  CZ        33.3430   47.8830   12.5210 C.ar   18  TYR18       0.1957
     33  OH        32.4690   48.9060   12.8070 O.3    18  TYR18      -0.2866
     34  N         40.7280   40.4440    7.3250 N.3    34  LEU34      -0.1245
     35  CA        39.3160   40.7360    7.5160 C.3    34  LEU34       0.1561
     36  C         38.6350   39.6380    8.3340 C.2    34  LEU34       0.2260
     37  O         38.7870   38.4540    8.0400 O.2    34  LEU34      -0.2867
     38  CB        38.6200   40.8480    6.1600 C.3    34  LEU34       0.0270
     39  CG        37.1130   41.0970    6.2130 C.3    34  LEU34       0.0019
     40  CD1       36.8490   42.5320    6.6450 C.3    34  LEU34       0.0001
     41  CD2       36.5010   40.8290    4.8560 C.3    34  LEU34       0.0001
     42  N         35.6420   37.6280    8.9840 N.3    36  ASP36      -0.1239
     43  CA        34.4270   37.3130    8.2430 C.3    36  ASP36       0.1674
     44  C         33.6690   36.0750    8.7010 C.2    36  ASP36       0.2266
     45  O         34.0510   34.9500    8.3800 O.2    36  ASP36      -0.2867
     46  CB        34.7650   37.1830    6.7550 C.3    36  ASP36       0.1410
     47  CG        33.5430   36.9010    5.9020 C.2    36  ASP36       0.3668
     48  OD1       32.4360   37.2920    6.3130 O.co2  36  ASP36      -0.2456
     49  OD2       33.6920   36.3000    4.8220 O.co2  36  ASP36      -0.2456
     50  N         32.2450   35.4250   -3.6790 N.3    75  TYR75      -0.1227
     51  CA        31.4910   36.0040   -2.5660 C.3    75  TYR75       0.1736
     52  C         30.4430   36.9260   -3.1790 C.2    75  TYR75       0.2596
     53  O         30.3810   37.0750   -4.3950 O.2    75  TYR75      -0.2718
     54  CB        32.4070   36.8420   -1.6590 C.3    75  TYR75       0.0548
     55  CG        33.5900   36.1040   -1.0620 C.ar   75  TYR75      -0.0200
     56  CD1       33.5440   35.5950    0.2400 C.ar   75  TYR75      -0.0009
     57  CD2       34.7630   35.9370   -1.7960 C.ar   75  TYR75      -0.0009
     58  CE1       34.6520   34.9370    0.8010 C.ar   75  TYR75       0.0417
     59  CE2       35.8630   35.2860   -1.2550 C.ar   75  TYR75       0.0417
     60  CZ        35.8050   34.7920    0.0350 C.ar   75  TYR75       0.1957
     61  OH        36.9090   34.1590    0.5380 O.3    75  TYR75      -0.2866
     62  N         29.6220   37.5420   -2.3330 N.am   76  THR76      -0.1939
     63  CA        28.6070   38.4790   -2.8000 C.3    76  THR76       0.2028
     64  C         29.2910   39.6420   -3.5170 C.2    76  THR76       0.2642
     65  O         28.7570   40.1990   -4.4720 O.2    76  THR76      -0.2714
     66  CB        27.7960   39.0470   -1.6180 C.3    76  THR76       0.1808
     67  OG1       27.1310   37.9760   -0.9460 O.3    76  THR76      -0.2208
     68  CG2       26.7610   40.0630   -2.1010 C.3    76  THR76       0.0379
     69  N         30.4780   40.0090   -3.0440 N.am   77  GLN77      -0.1976
     70  CA        31.2270   41.1060   -3.6340 C.3    77  GLN77       0.1601
     71  C         32.6120   40.6620   -4.0810 C.2    77  GLN77       0.2287
     72  O         33.5730   40.7430   -3.3150 O.2    77  GLN77      -0.2864
     73  CB        31.3650   42.2470   -2.6260 C.3    77  GLN77       0.0394
     74  CG        30.0450   42.8410   -2.1900 C.3    77  GLN77       0.0908
     75  CD        29.4840   43.8080   -3.2050 C.2    77  GLN77       0.2608
     76  OE1       29.9390   44.9450   -3.3090 O.2    77  GLN77      -0.2717
     77  NE2       28.5000   43.3600   -3.9690 N.am   77  GLN77      -0.0878
     78  N         37.6140   42.3550   -7.9400 N.3   111  LYS111     -0.1231
     79  CA        36.7950   43.1620   -7.0420 C.3   111  LYS111      0.1693
     80  C         36.6340   42.5930   -5.6370 C.2   111  LYS111      0.2592
     81  O         35.5770   42.7480   -5.0230 O.2   111  LYS111     -0.2718
     82  CB        35.4160   43.3770   -7.6720 C.3   111  LYS111      0.0285
     83  CG        35.4760   44.0890   -9.0100 C.3   111  LYS111      0.0035
     84  CD        34.0940   44.2390   -9.6230 C.3   111  LYS111      0.0206
     85  CE        34.1640   44.9800  -10.9450 C.3   111  LYS111      0.1093
     86  NZ        32.8060   45.2220  -11.4990 N.3   111  LYS111     -0.1314
     87  N         37.6810   41.9430   -5.1320 N.am  112  PHE112     -0.1976
     88  CA        37.6550   41.3670   -3.7920 C.3   112  PHE112      0.1639
     89  C         38.2550   42.3600   -2.8050 C.2   112  PHE112      0.2290
     90  O         37.5780   42.8190   -1.8820 O.2   112  PHE112     -0.2864
     91  CB        38.4470   40.0580   -3.7430 C.3   112  PHE112      0.0560
     92  CG        38.4610   39.4140   -2.3860 C.ar  112  PHE112     -0.0200
     93  CD1       37.2840   38.9380   -1.8160 C.ar  112  PHE112     -0.0042
     94  CD2       39.6480   39.3020   -1.6640 C.ar  112  PHE112     -0.0042
     95  CE1       37.2840   38.3610   -0.5490 C.ar  112  PHE112     -0.0003
     96  CE2       39.6590   38.7270   -0.3960 C.ar  112  PHE112     -0.0003
     97  CZ        38.4730   38.2550    0.1650 C.ar  112  PHE112     -0.0000
     98  N         39.5370   45.8000   -1.2410 N.3   114  ILE114     -0.1245
     99  CA        38.9420   47.1260   -1.2660 C.3   114  ILE114      0.1561
    100  C         40.0200   48.1850   -1.0880 C.2   114  ILE114      0.2260
    101  O         40.7880   48.1540   -0.1200 O.2   114  ILE114     -0.2867
    102  CB        37.8960   47.2820   -0.1400 C.3   114  ILE114      0.0252
    103  CG1       36.7590   46.2750   -0.3430 C.3   114  ILE114      0.0019
    104  CG2       37.3530   48.7090   -0.1260 C.3   114  ILE114      0.0019
    105  CD1       35.7320   46.2660    0.7820 C.3   114  ILE114      0.0001
    106  N         43.0810   45.9340    4.7800 N.3   119  TRP119     -0.1241
    107  CA        43.1970   44.5030    5.0340 C.3   119  TRP119      0.1605
    108  C         43.7330   43.8380    3.7680 C.2   119  TRP119      0.2264
    109  O         43.4740   44.2920    2.6480 O.2   119  TRP119     -0.2867
    110  CB        41.8730   43.8670    5.5120 C.3   119  TRP119      0.0550
    111  CG        40.6220   44.1850    4.7450 C.ar  119  TRP119      0.0003
    112  CD1       39.7520   45.2120    4.9850 C.ar  119  TRP119      0.0946
    113  CD2       40.0620   43.4300    3.6620 C.ar  119  TRP119      0.0152
    114  NE1       38.6830   45.1400    4.1240 N.ar  119  TRP119     -0.2442
    115  CE2       38.8470   44.0570    3.3000 C.ar  119  TRP119      0.0810
    116  CE3       40.4670   42.2830    2.9650 C.ar  119  TRP119      0.0012
    117  CZ2       38.0320   43.5770    2.2690 C.ar  119  TRP119      0.0191
    118  CZ3       39.6520   41.8010    1.9360 C.ar  119  TRP119      0.0001
    119  CH2       38.4490   42.4510    1.6000 C.ar  119  TRP119      0.0015
    120  N         41.5920   37.4060    4.3730 N.3   122  ILE122     -0.1245
    121  CA        40.2970   37.1770    4.9990 C.3   122  ILE122      0.1561
    122  C         40.2980   35.9370    5.8920 C.2   122  ILE122      0.2260
    123  O         40.8890   34.9160    5.5520 O.2   122  ILE122     -0.2867
    124  CB        39.2010   37.0370    3.8900 C.3   122  ILE122      0.0252
    125  CG1       37.8180   36.8300    4.5110 C.3   122  ILE122      0.0019
    126  CG2       39.5420   35.8800    2.9640 C.3   122  ILE122      0.0019
    127  CD1       36.6890   36.9730    3.5050 C.3   122  ILE122      0.0001
    128  N         26.6650   37.9370    9.6900 N.3   219  ASP219     -0.1225
    129  CA        27.8630   38.0480    8.8830 C.3   219  ASP219      0.1805
    130  C         28.6350   39.3480    9.0750 C.2   219  ASP219      0.2598
    131  O         28.2070   40.4100    8.6330 O.2   219  ASP219     -0.2718
    132  CB        27.4350   37.8660    7.4220 C.3   219  ASP219      0.1424
    133  CG        28.5770   38.0100    6.4420 C.2   219  ASP219      0.3668
    134  OD1       29.7480   37.9570    6.8590 O.co2 219  ASP219     -0.2456
    135  OD2       28.2790   38.1660    5.2450 O.co2 219  ASP219     -0.2456
    136  N         29.7870   39.2470    9.7290 N.am  220  SER220     -0.1938
    137  CA        30.6360   40.4080    9.9790 C.3   220  SER220      0.2055
    138  C         31.3020   40.9250    8.7010 C.2   220  SER220      0.2644
    139  O         31.8330   42.0370    8.6770 O.2   220  SER220     -0.2714
    140  CB        31.7180   40.0460   11.0030 C.3   220  SER220      0.2130
    141  OG        32.5880   39.0610   10.4700 O.3   220  SER220     -0.2179
    142  N         31.2770   40.1160    7.6430 N.am  221  GLY221     -0.1939
    143  CA        31.8820   40.5130    6.3860 C.3   221  GLY221      0.2014
    144  C         30.9570   41.3030    5.4750 C.2   221  GLY221      0.2640
    145  O         31.3850   41.7730    4.4290 O.2   221  GLY221     -0.2714
    146  N         29.6910   41.4420    5.8670 N.am  222  THR222     -0.1936
    147  CA        28.7170   42.1930    5.0770 C.3   222  THR222      0.2028
    148  C         28.4070   43.5090    5.7870 C.2   222  THR222      0.2643
    149  O         28.1400   43.5380    6.9820 O.2   222  THR222     -0.2714
    150  CB        27.4060   41.3890    4.8790 C.3   222  THR222      0.1808
    151  OG1       27.6450   40.3120    3.9640 O.3   222  THR222     -0.2208
    152  CG2       26.3000   42.2790    4.3110 C.3   222  THR222      0.0379
    153  N         28.4480   44.6010    5.0330 N.am  223  THR223     -0.1936
    154  CA        28.2050   45.9220    5.5890 C.3   223  THR223      0.2028
    155  C         26.7840   46.1600    6.0930 C.2   223  THR223      0.2642
    156  O         26.5740   46.5680    7.2310 O.2   223  THR223     -0.2714
    157  CB        28.4950   47.0140    4.5320 C.3   223  THR223      0.1808
    158  OG1       29.8020   46.8180    3.9800 O.3   223  THR223     -0.2208
    159  CG2       28.4160   48.3890    5.1560 C.3   223  THR223      0.0379
    160  N         25.8150   45.9030    5.2240 N.am  224  ASN224     -0.1971
    161  CA        24.4110   46.1700    5.5060 C.3   224  ASN224      0.1688
    162  C         23.5720   45.1240    6.2080 C.2   224  ASN224      0.2292
    163  O         23.9950   44.0000    6.4600 O.2   224  ASN224     -0.2864
    164  CB        23.6820   46.4810    4.1910 C.3   224  ASN224      0.1181
    165  CG        24.2080   47.7140    3.4930 C.2   224  ASN224      0.2629
    166  OD1       25.1590   48.3460    3.9400 O.2   224  ASN224     -0.2716
    167  ND2       23.5740   48.0650    2.3800 N.am  224  ASN224     -0.0877
    168  N         20.7520   43.2140    5.2450 N.3   226  ARG226     -0.1245
    169  CA        20.1090   42.8790    3.9910 C.3   226  ARG226      0.1563
    170  C         18.8550   42.0750    4.2740 C.2   226  ARG226      0.2260
    171  O         18.8570   41.1850    5.1170 O.2   226  ARG226     -0.2867
    172  CB        21.0780   42.0960    3.1040 C.3   226  ARG226      0.0307
    173  CG        22.4230   42.7960    2.9140 C.3   226  ARG226      0.0489
    174  CD        23.3100   42.0430    1.9330 C.3   226  ARG226      0.2205
    175  NE        22.7210   42.0260    0.5980 N.pl3 226  ARG226     -0.0865
    176  CZ        22.9390   41.0770   -0.3050 C.cat 226  ARG226      0.5346
    177  NH1       22.3570   41.1490   -1.4950 N.pl3 226  ARG226      0.1354
    178  NH2       23.7290   40.0530   -0.0160 N.pl3 226  ARG226      0.1354
    179  N         24.9060   54.8600    7.5910 N.3   298  ARG298     -0.1245
    180  CA        26.3650   54.8540    7.6300 C.3   298  ARG298      0.1563
    181  C         27.0750   56.0580    7.0210 C.2   298  ARG298      0.2260
    182  O         26.7810   56.4680    5.9020 O.2   298  ARG298     -0.2867
    183  CB        26.8770   53.5700    6.9780 C.3   298  ARG298      0.0307
    184  CG        26.4390   52.3070    7.7160 C.3   298  ARG298      0.0489
    185  CD        26.9430   51.0540    7.0160 C.3   298  ARG298      0.2205
    186  NE        28.4020   51.0120    6.9360 N.pl3 298  ARG298     -0.0865
    187  CZ        29.2030   50.5950    7.9130 C.cat 298  ARG298      0.5346
    188  NH1       30.5150   50.6000    7.7380 N.pl3 298  ARG298      0.1354
    189  NH2       28.7020   50.1610    9.0560 N.pl3 298  ARG298      0.1354
    190  N         24.5790   57.1250    4.0690 N.3   307  LYS307     -0.1245
    191  CA        23.9690   56.2150    3.1180 C.3   307  LYS307      0.1561
    192  C         23.0480   55.2910    3.9070 C.2   307  LYS307      0.2260
    193  O         23.4310   54.7830    4.9560 O.2   307  LYS307     -0.2867
    194  CB        25.0440   55.3840    2.4120 C.3   307  LYS307      0.0271
    195  CG        24.4850   54.2970    1.5170 C.3   307  LYS307      0.0035
    196  CD        25.5670   53.3610    1.0110 C.3   307  LYS307      0.0206
    197  CE        24.9550   52.2390    0.1840 C.3   307  LYS307      0.1093
    198  NZ        25.9540   51.2070   -0.2090 N.3   307  LYS307     -0.1314
    199  N         19.4020   47.1000    2.7340 N.3   311  SER311     -0.1217
    200  CA        19.1690   46.8300    1.3260 C.3   311  SER311      0.1889
    201  C         18.5170   45.4820    1.0830 C.2   311  SER311      0.2288
    202  O         18.3190   44.7010    2.0150 O.2   311  SER311     -0.2866
    203  CB        20.4960   46.9240    0.5650 C.3   311  SER311      0.2089
    204  OG        21.4950   46.1390    1.1930 O.3   311  SER311     -0.2183
    205  N         27.2310   44.3000    9.5110 N.3   321  ALA321     -0.1245
    206  CA        27.7710   45.3150   10.4170 C.3   321  ALA321      0.1562
    207  C         26.7100   46.2480   10.9920 C.2   321  ALA321      0.2260
    208  O         26.8070   46.6660   12.1420 O.2   321  ALA321     -0.2867
    209  CB        28.8440   46.1260    9.7010 C.3   321  ALA321      0.0290
    210  N         27.2540   46.2150   14.8540 N.3   325  GLU325     -0.1245
    211  CA        27.8490   47.3990   15.4670 C.3   325  GLU325      0.1567
    212  C         27.0680   47.9290   16.6710 C.2   325  GLU325      0.2260
    213  O         27.5350   48.8170   17.3800 O.2   325  GLU325     -0.2867
    214  CB        28.0330   48.5080   14.4190 C.3   325  GLU325      0.0388
    215  CG        29.1420   48.2010   13.4120 C.3   325  GLU325      0.1160
    216  CD        29.3290   49.2940   12.3710 C.2   325  GLU325      0.3649
    217  OE1       30.2050   49.1360   11.4980 O.co2 325  GLU325     -0.2457
    218  OE2       28.6040   50.3100   12.4200 O.co2 325  GLU325     -0.2457
@<TRIPOS>BOND
     1    86    85    1
     2    85    84    1
     3    84    83    1
     4    83    82    1
     5    78    79    1
     6    82    79    1
     7    79    80    1
     8    80    87   am
     9    80    81    2
    10    87    88    1
    11    65    64    2
    12    53    52    2
    13    71    70    1
    14    71    72    2
    15    77    75   am
    16    88    91    1
    17    88    89    1
    18    91    92    1
    19    50    51    1
    20    70    69    1
    21    70    73    1
    22    64    69   am
    23    64    63    1
    24    76    75    2
    25    75    74    1
    26    52    51    1
    27    52    62   am
    28    89    90    2
    29    63    62    1
    30    63    66    1
    31    73    74    1
    32    51    54    1
    33    92    93   ar
    34    92    94   ar
    35    68    66    1
    36    93    95   ar
    37    57    59   ar
    38    57    55   ar
    39    94    96   ar
    40    54    55    1
    41    66    67    1
    42   177   176    1
    43    99    98    1
    44    99   100    1
    45    99   102    1
    46    59    60   ar
    47   100   101    2
    48    55    56   ar
    49    95    97   ar
    50    96    97   ar
    51   103   102    1
    52   103   105    1
    53   176   178    1
    54   176   175    2
    55   198   197    1
    56   102   104    1
    57    60    61    1
    58    60    58   ar
    59   197   196    1
    60    56    58   ar
    61   203   204    1
    62   203   200    1
    63   175   174    1
    64    17    15   am
    65   196   195    1
    66   201   200    1
    67   201   202    2
    68   200   199    1
    69   195   194    1
    70   119   118   ar
    71   119   117   ar
    72    15    16    2
    73    15    14    1
    74   174   173    1
    75   118   116   ar
    76   117   115   ar
    77   167   165   am
    78   194   191    1
    79   109   108    2
    80   173   172    1
    81   126   124    1
    82   116   113   ar
    83    14    13    1
    84   172   169    1
    85   191   192    1
    86   191   190    1
    87   115   113   ar
    88   115   114   ar
    89   165   166    2
    90   165   164    1
    91    13    10    1
    92   127   125    1
    93   113   111   ar
    94   108   107    1
    95   124   125    1
    96   124   121    1
    97   192   193    2
    98   151   150    1
    99   158   157    1
   100   169   170    1
   101   169   168    1
   102   114   112   ar
   103   164   161    1
   104   170   171    2
   105   152   150    1
   106   120   121    1
   107   145   144    2
   108    12    11    2
   109   157   159    1
   110   157   154    1
   111   111   112   ar
   112   111   110    1
   113   106   107    1
   114    49    47   ar
   115    41    39    1
   116   150   147    1
   117    10    11    1
   118    10     9    1
   119   121   122    1
   120   153   154    1
   121   153   148   am
   122   107   110    1
   123   147   148    1
   124   147   146    1
   125   160   161    1
   126   160   155   am
   127   135   133   ar
   128    11    18   am
   129   144   146   am
   130   144   143    1
   131   161   162    1
   132   123   122    2
   133   154   155    1
   134   148   149    2
   135     9     7   am
   136    47    48   ar
   137    47    46    1
   138   182   181    2
   139   155   156    2
   140    38    39    1
   141    38    35    1
   142   162   163    2
   143    39    40    1
   144   143   142    1
   145   133   134   ar
   146   133   132    1
   147     7     8    2
   148     7     6    1
   149    18    19    1
   150    46    43    1
   151   186   185    1
   152   186   187    2
   153   183   180    1
   154   183   184    1
   155   185   184    1
   156   181   180    1
   157    19    20    1
   158    34    35    1
   159     6     5    1
   160   132   129    1
   161    35    36    1
   162   179   180    1
   163   142   138   am
   164   188   187    1
   165   187   189    1
   166    37    36    2
   167    43    44    1
   168    43    42    1
   169    20    21    2
   170    20    22   am
   171    45    44    2
   172   131   130    2
   173   139   138    2
   174   138   137    1
   175   129   130    1
   176   129   128    1
   177   130   136   am
   178    22    23    1
   179   205   206    1
   180   209   206    1
   181   136   137    1
   182    25    24    2
   183   137   140    1
   184    24    23    1
   185   206   207    1
   186   141   140    1
   187     4     3    2
   188    23    26    1
   189     2     3    1
   190     2     1    1
   191   207   208    2
   192    28    30   ar
   193    28    27   ar
   194   217   216   ar
   195    30    32   ar
   196    26    27    1
   197    27    29   ar
   198   216   218   ar
   199   216   215    1
   200    32    33    1
   201    32    31   ar
   202    29    31   ar
   203   215   214    1
   204   214   211    1
   205   210   211    1
   206   211   212    1
   207   212   213    2
