@<TRIPOS>MOLECULE
tmp/1tqhA00.pdb
 96 93 0 0 0
SMALL
GASTEIGER

@<TRIPOS>ATOM
      1  N         36.7490   23.5630   22.1710 N.3    19  GLY19      -0.1210
      2  CA        38.0220   24.2550   22.3340 C.3    19  GLY19       0.1956
      3  C         38.4940   24.2640   23.7740 C.2    19  GLY19       0.2612
      4  O         37.7880   23.8360   24.6770 O.2    19  GLY19      -0.2717
      5  N         39.6970   24.7880   23.9710 N.am   20  PHE20      -0.1962
      6  CA        40.3210   24.9030   25.2930 C.3    20  PHE20       0.1771
      7  C         39.5290   25.8880   26.1470 C.2    20  PHE20       0.2620
      8  O         39.3000   27.0170   25.6830 O.2    20  PHE20      -0.2715
      9  CB        41.7740   25.3370   25.1320 C.3    20  PHE20       0.0574
     10  CG        42.5350   25.5650   26.4260 C.ar   20  PHE20      -0.0200
     11  CD1       42.5150   24.6500   27.4540 C.ar   20  PHE20      -0.0042
     12  CD2       43.2860   26.7280   26.5840 C.ar   20  PHE20      -0.0042
     13  CE1       43.2250   24.9060   28.6070 C.ar   20  PHE20      -0.0003
     14  CE2       43.9950   26.9870   27.7400 C.ar   20  PHE20      -0.0003
     15  CZ        43.9700   26.0530   28.7640 C.ar   20  PHE20      -0.0000
     16  N         39.1330   25.4660   27.3350 N.am   21  THR21      -0.1937
     17  CA        38.2810   26.1240   28.3060 C.3    21  THR21       0.2028
     18  C         36.8040   26.0760   27.8970 C.2    21  THR21       0.2642
     19  O         35.9520   26.5350   28.6540 O.2    21  THR21      -0.2714
     20  CB        38.6460   27.5880   28.6280 C.3    21  THR21       0.1808
     21  OG1       38.4290   28.4850   27.5290 O.3    21  THR21      -0.2208
     22  CG2       40.1290   27.6860   28.9840 C.3    21  THR21       0.0379
     23  N         36.4920   25.5010   26.7400 N.am   22  GLY22      -0.1954
     24  CA        35.1720   25.3370   26.2010 C.3    22  GLY22       0.1869
     25  C         34.4830   24.1230   26.7970 C.2    22  GLY22       0.2309
     26  O         34.9690   23.5550   27.7790 O.2    22  GLY22      -0.2863
     27  N         29.5330   24.4780   23.0940 N.3    26  ASP26      -0.1239
     28  CA        30.0820   25.2850   21.9990 C.3    26  ASP26       0.1674
     29  C         29.8120   24.6400   20.6370 C.2    26  ASP26       0.2266
     30  O         29.9130   25.2780   19.5880 O.2    26  ASP26      -0.2867
     31  CB        31.5800   25.4870   22.2230 C.3    26  ASP26       0.1410
     32  CG        31.8340   26.2220   23.5330 C.2    26  ASP26       0.3668
     33  OD1       30.9580   26.9660   24.0550 O.co2  26  ASP26      -0.2456
     34  OD2       32.9210   26.0690   24.1050 O.co2  26  ASP26      -0.2456
     35  N         36.5460   22.9190   17.0130 N.3    88  LEU88      -0.1231
     36  CA        36.5870   24.3460   17.2720 C.3    88  LEU88       0.1693
     37  C         37.8560   24.6820   18.0550 C.2    88  LEU88       0.2593
     38  O         38.0680   24.0990   19.1210 O.2    88  LEU88      -0.2718
     39  CB        35.3480   24.7970   18.0570 C.3    88  LEU88       0.0284
     40  CG        35.2900   26.2960   18.3810 C.3    88  LEU88       0.0019
     41  CD1       35.1670   27.1200   17.1040 C.3    88  LEU88       0.0001
     42  CD2       34.1440   26.5750   19.3390 C.3    88  LEU88       0.0001
     43  N         38.6590   25.6120   17.5290 N.am   89  SER89      -0.1938
     44  CA        39.8640   26.0930   18.2240 C.3    89  SER89       0.2055
     45  C         40.8070   24.9410   18.5280 C.2    89  SER89       0.2642
     46  O         41.2490   24.2500   17.5970 O.2    89  SER89      -0.2714
     47  CB        39.4010   26.8300   19.4780 C.3    89  SER89       0.2130
     48  OG        40.4300   27.6090   20.0440 O.3    89  SER89      -0.2179
     49  N         41.1470   24.6740   19.7860 N.am   90  LEU90      -0.1977
     50  CA        41.9790   23.4900   20.0580 C.3    90  LEU90       0.1596
     51  C         41.3430   22.2130   19.5000 C.2    90  LEU90       0.2287
     52  O         42.0460   21.3030   19.0420 O.2    90  LEU90      -0.2864
     53  CB        42.2170   23.3260   21.5580 C.3    90  LEU90       0.0297
     54  CG        42.9240   22.0120   21.9450 C.3    90  LEU90       0.0022
     55  CD1       44.2050   21.8190   21.1530 C.3    90  LEU90       0.0001
     56  CD2       43.2000   21.9820   23.4400 C.3    90  LEU90       0.0001
     57  N         44.3510   27.1570   15.9190 N.3   113  PRO113     -0.2116
     58  CA        45.6450   27.8370   15.9560 C.3   113  PRO113      0.1372
     59  C         46.8030   26.9830   15.4360 C.2   113  PRO113      0.2244
     60  O         46.8600   25.7840   15.7170 O.2   113  PRO113     -0.2868
     61  CB        45.8520   28.1090   17.4590 C.3   113  PRO113      0.0268
     62  CG        45.1160   26.9800   18.1240 C.3   113  PRO113      0.0207
     63  CD        43.9030   26.7310   17.2530 C.3   113  PRO113      0.0892
     64  N         41.5740   35.9280   19.2810 N.3   190  MET190     -0.1230
     65  CA        42.2950   34.9980   20.1370 C.3   190  MET190      0.1702
     66  C         43.4680   34.3050   19.4650 C.2   190  MET190      0.2592
     67  O         44.3570   33.8350   20.1780 O.2   190  MET190     -0.2718
     68  CB        41.3020   33.9510   20.6760 C.3   190  MET190      0.0401
     69  CG        40.1800   34.6500   21.4410 C.3   190  MET190      0.0596
     70  SD        39.4340   33.5370   22.6420 S.3   190  MET190     -0.1393
     71  CE        40.8940   32.8910   23.4580 C.3   190  MET190      0.0692
     72  N         43.5130   34.1720   18.1460 N.am  191  ILE191     -0.1980
     73  CA        44.6080   33.4160   17.5310 C.3   191  ILE191      0.1595
     74  C         45.0830   34.1850   16.3110 C.2   191  ILE191      0.2287
     75  O         44.4440   35.1760   15.9260 O.2   191  ILE191     -0.2864
     76  CB        44.1860   31.9990   17.1000 C.3   191  ILE191      0.0276
     77  CG1       43.1770   31.9570   15.9430 C.3   191  ILE191      0.0022
     78  CG2       43.6060   31.1970   18.2690 C.3   191  ILE191      0.0022
     79  CD1       43.2260   30.6700   15.1400 C.3   191  ILE191      0.0001
     80  N         36.3480   34.5640   17.2730 N.3   218  HIS218     -0.1226
     81  CA        37.0120   33.2790   17.4160 C.3   218  HIS218      0.1752
     82  C         36.0610   32.1130   17.6620 C.2   218  HIS218      0.2595
     83  O         36.1900   31.0500   17.0560 O.2   218  HIS218     -0.2718
     84  CB        38.0050   33.3560   18.5980 C.3   218  HIS218      0.0759
     85  CG        38.7460   32.0570   18.7560 C.ar  218  HIS218      0.0818
     86  ND1       39.5980   31.6080   17.7760 N.ar  218  HIS218     -0.2268
     87  CD2       38.7610   31.1120   19.7270 C.ar  218  HIS218      0.1154
     88  CE1       40.1150   30.4350   18.1510 C.ar  218  HIS218      0.1986
     89  NE2       39.6300   30.1170   19.3430 N.ar  218  HIS218     -0.2212
     90  N         35.1070   32.3040   18.5750 N.am  219  VAL219     -0.1980
     91  CA        34.1730   31.1960   18.8690 C.3   219  VAL219      0.1595
     92  C         33.0100   31.2410   17.8840 C.2   219  VAL219      0.2287
     93  O         31.9130   31.7170   18.1610 O.2   219  VAL219     -0.2864
     94  CB        33.6770   31.2850   20.3200 C.3   219  VAL219      0.0276
     95  CG1       32.7990   30.0970   20.6440 C.3   219  VAL219      0.0022
     96  CG2       34.8640   31.3510   21.2760 C.3   219  VAL219      0.0022
@<TRIPOS>BOND
     1    79    77    1
     2    59    60    2
     3    59    58    1
     4    57    58    1
     5    57    63    1
     6    75    74    2
     7    77    76    1
     8    58    61    1
     9    74    73    1
    10    35    36    1
    11    83    82    2
    12    76    73    1
    13    76    78    1
    14    41    40    1
    15    63    62    1
    16    36    37    1
    17    36    39    1
    18    80    81    1
    19    81    82    1
    20    81    84    1
    21    61    62    1
    22    43    37   am
    23    43    44    1
    24    73    72    1
    25    46    45    2
    26    82    90   am
    27    86    88   ar
    28    86    85   ar
    29    92    93    2
    30    92    91    1
    31    37    38    2
    32    39    40    1
    33    72    66   am
    34    88    89   ar
    35    44    45    1
    36    44    47    1
    37    40    42    1
    38    45    49   am
    39    90    91    1
    40    84    85    1
    41    85    87   ar
    42    91    94    1
    43    52    51    2
    44    64    65    1
    45    89    87   ar
    46    66    65    1
    47    66    67    2
    48    47    48    1
    49    51    50    1
    50    30    29    2
    51    49    50    1
    52    50    53    1
    53    65    68    1
    54    94    95    1
    55    94    96    1
    56    29    28    1
    57    68    69    1
    58    55    54    1
    59    69    70    1
    60    53    54    1
    61    54    56    1
    62    28    31    1
    63    28    27    1
    64     1     2    1
    65    31    32    1
    66     2     3    1
    67    70    71    1
    68    32    33   ar
    69    32    34   ar
    70     3     5   am
    71     3     4    2
    72     5     6    1
    73     9     6    1
    74     9    10    1
    75     6     7    1
    76     8     7    2
    77     7    16   am
    78    24    23    1
    79    24    25    1
    80    10    12   ar
    81    10    11   ar
    82    12    14   ar
    83    23    18   am
    84    25    26    2
    85    16    17    1
    86    11    13   ar
    87    21    20    1
    88    14    15   ar
    89    18    17    1
    90    18    19    2
    91    17    20    1
    92    13    15   ar
    93    20    22    1
