@<TRIPOS>MOLECULE
tmp/1tqmA00.pdb
 175 161 0 0 0
SMALL
GASTEIGER

@<TRIPOS>ATOM
      1  N         54.8500   25.7060   22.7990 N.3    98  MET98      -0.1230
      2  CA        53.9250   26.6860   23.3110 C.3    98  MET98       0.1702
      3  C         53.1760   26.1660   24.5220 C.2    98  MET98       0.2592
      4  O         52.9080   26.9270   25.3920 O.2    98  MET98      -0.2718
      5  CB        52.9180   27.0830   22.2420 C.3    98  MET98       0.0401
      6  CG        52.0500   28.2580   22.6200 C.3    98  MET98       0.0596
      7  SD        50.9410   28.6830   21.1740 S.3    98  MET98      -0.1393
      8  CE        49.8410   28.2510   21.7990 C.3    98  MET98       0.0692
      9  N         52.7300   24.9080   24.5040 N.am   99  GLY99      -0.1957
     10  CA        52.1650   24.2510   25.6660 C.3    99  GLY99       0.1869
     11  C         51.8680   22.7860   25.3050 C.2    99  GLY99       0.2309
     12  O         51.8650   22.3980   24.1330 O.2    99  GLY99      -0.2863
     13  N         49.4170   19.2890   26.8780 N.3   101  GLY101     -0.1225
     14  CA        48.5100   18.6440   27.8200 C.3   101  GLY101      0.1811
     15  C         48.4300   17.1560   27.5730 C.2   101  GLY101      0.2280
     16  O         49.3150   16.5480   26.9640 O.2   101  GLY101     -0.2866
     17  N         46.4270   15.7310   25.5950 N.3   103  GLU103     -0.1231
     18  CA        45.9660   15.4030   24.2460 C.3   103  GLU103      0.1699
     19  C         46.9160   15.7880   23.0710 C.2   103  GLU103      0.2592
     20  O         46.7450   15.2960   21.9510 O.2   103  GLU103     -0.2718
     21  CB        44.6020   16.0280   23.9780 C.3   103  GLU103      0.0402
     22  CG        43.6370   16.0720   25.1390 C.3   103  GLU103      0.1161
     23  CD        43.2490   14.7350   25.6260 C.2   103  GLU103      0.3649
     24  OE1       43.4310   14.5050   26.8630 O.co2 103  GLU103     -0.2457
     25  OE2       42.7350   13.9560   24.8080 O.co2 103  GLU103     -0.2457
     26  N         47.8320   16.7190   23.3240 N.am  104  SER104     -0.1952
     27  CA        48.6820   17.3080   22.2700 C.3   104  SER104      0.1924
     28  C         49.8150   18.0660   22.8410 C.2   104  SER104      0.2314
     29  O         49.7880   18.4500   24.0270 O.2   104  SER104     -0.2863
     30  CB        47.8200   18.2680   21.3940 C.3   104  SER104      0.2116
     31  OG        47.5790   19.5140   22.0710 O.3   104  SER104     -0.2180
     32  N         51.7620   21.5290   21.3910 N.3   106  VAL106     -0.1245
     33  CA        51.7160   22.5830   20.4010 C.3   106  VAL106      0.1561
     34  C         52.9730   23.3800   20.3810 C.2   106  VAL106      0.2260
     35  O         53.3790   23.9170   21.4560 O.2   106  VAL106     -0.2867
     36  CB        50.5440   23.5430   20.7550 C.3   106  VAL106      0.0252
     37  CG1       50.4220   24.6950   19.7000 C.3   106  VAL106      0.0019
     38  CG2       49.2500   22.7860   20.8210 C.3   106  VAL106      0.0019
     39  N         51.5730   27.4680   14.0320 N.3   118  VAL118     -0.1245
     40  CA        51.6990   26.4000   15.0050 C.3   118  VAL118      0.1561
     41  C         51.6230   25.0570   14.3530 C.2   118  VAL118      0.2260
     42  O         50.9280   24.8550   13.3490 O.2   118  VAL118     -0.2867
     43  CB        50.7240   26.4770   16.2830 C.3   118  VAL118      0.0252
     44  CG1       50.5750   27.9180   16.8000 C.3   118  VAL118      0.0019
     45  CG2       49.4690   25.8940   16.0700 C.3   118  VAL118      0.0019
     46  N         50.7430   21.2220   15.7240 N.3   120  LYS120     -0.1245
     47  CA        50.1570   20.5690   16.8560 C.3   120  LYS120      0.1561
     48  C         50.2930   19.0630   16.6590 C.2   120  LYS120      0.2260
     49  O         49.8360   18.4860   15.6560 O.2   120  LYS120     -0.2867
     50  CB        48.6680   20.9940   16.9620 C.3   120  LYS120      0.0271
     51  CG        47.8250   20.2630   17.9750 C.3   120  LYS120      0.0035
     52  CD        46.3230   20.7910   18.0510 C.3   120  LYS120      0.0206
     53  CE        45.5590   20.0040   19.0590 C.3   120  LYS120      0.1093
     54  NZ        44.2240   20.4770   19.0250 N.3   120  LYS120     -0.1314
     55  N         41.1230   16.5490   12.8150 N.3   141  GLU141     -0.1245
     56  CA        41.2560   17.9410   13.0220 C.3   141  GLU141      0.1567
     57  C         41.5360   18.7040   11.7410 C.2   141  GLU141      0.2260
     58  O         40.9640   19.8090   11.5350 O.2   141  GLU141     -0.2867
     59  CB        42.3300   18.2370   14.1110 C.3   141  GLU141      0.0388
     60  CG        42.5910   19.7110   14.2920 C.3   141  GLU141      0.1160
     61  CD        43.1650   19.9700   15.6860 C.2   141  GLU141      0.3649
     62  OE1       44.2370   19.4750   15.9280 O.co2 141  GLU141     -0.2457
     63  OE2       42.5980   20.7050   16.4770 O.co2 141  GLU141     -0.2457
     64  N         41.4510   28.8470   12.7740 N.3   154  PRO154     -0.2116
     65  CA        42.7290   29.0630   12.0840 C.3   154  PRO154      0.1372
     66  C         42.6820   28.5610   10.6760 C.2   154  PRO154      0.2244
     67  O         42.0380   27.5780   10.3870 O.2   154  PRO154     -0.2868
     68  CB        43.7060   28.1710   12.8420 C.3   154  PRO154      0.0268
     69  CG        43.0430   27.8840   14.1360 C.3   154  PRO154      0.0207
     70  CD        41.5880   27.9630   13.9500 C.3   154  PRO154      0.0892
     71  N         49.0390   24.8620   11.2130 N.3   166  MET166     -0.1230
     72  CA        47.9600   25.8600   11.1150 C.3   166  MET166      0.1702
     73  C         48.4540   27.2320   11.4740 C.2   166  MET166      0.2592
     74  O         49.5450   27.3760   12.0490 O.2   166  MET166     -0.2718
     75  CB        46.8020   25.4090   12.0020 C.3   166  MET166      0.0401
     76  CG        47.0030   25.7590   13.5100 C.3   166  MET166      0.0596
     77  SD        45.6370   25.0300   14.4280 S.3   166  MET166     -0.1393
     78  CE        46.1070   23.3840   14.5370 C.3   166  MET166      0.0692
     79  N         47.6460   28.2280   11.1710 N.am  167  GLU167     -0.1966
     80  CA        47.7850   29.6170   11.5230 C.3   167  GLU167      0.1733
     81  C         47.8700   29.8900   13.0080 C.2   167  GLU167      0.2616
     82  O         47.1470   29.3310   13.7900 O.2   167  GLU167     -0.2715
     83  CB        46.5830   30.4140   11.0260 C.3   167  GLU167      0.0429
     84  CG        46.6200   31.8940   11.2990 C.3   167  GLU167      0.1163
     85  CD        45.4010   32.6200   10.7460 C.2   167  GLU167      0.3649
     86  OE1       44.4220   31.9520   10.3850 O.co2 167  GLU167     -0.2457
     87  OE2       45.4180   33.8540   10.7000 O.co2 167  GLU167     -0.2457
     88  N         48.8420   30.7120   13.3760 N.am  168  LEU168     -0.1963
     89  CA        48.9400   31.1700   14.7410 C.3   168  LEU168      0.1728
     90  C         47.9290   32.2520   14.9310 C.2   168  LEU168      0.2616
     91  O         47.9440   33.2460   14.2340 O.2   168  LEU168     -0.2715
     92  CB        50.3420   31.7340   15.0010 C.3   168  LEU168      0.0311
     93  CG        50.9320   32.0210   16.3970 C.3   168  LEU168      0.0022
     94  CD1       51.7630   33.3480   16.4130 C.3   168  LEU168      0.0001
     95  CD2       50.1480   31.8790   17.5130 C.3   168  LEU168      0.0001
     96  N         47.0520   32.0690   15.8920 N.am  169  ILE169     -0.1977
     97  CA        46.0690   33.0940   16.1850 C.3   169  ILE169      0.1596
     98  C         46.6200   33.9250   17.3080 C.2   169  ILE169      0.2287
     99  O         46.9140   33.3800   18.3500 O.2   169  ILE169     -0.2864
    100  CB        44.7600   32.4590   16.6740 C.3   169  ILE169      0.0276
    101  CG1       44.1820   31.5600   15.6110 C.3   169  ILE169      0.0022
    102  CG2       43.7180   33.5780   17.0010 C.3   169  ILE169      0.0022
    103  CD1       43.9770   32.2630   14.3160 C.3   169  ILE169      0.0001
    104  N         45.6050   35.4760   20.1490 N.3   171  ALA171     -0.1245
    105  CA        44.4870   35.6520   21.0760 C.3   171  ALA171      0.1562
    106  C         44.6510   34.7300   22.2530 C.2   171  ALA171      0.2260
    107  O         45.3030   33.7060   22.1720 O.2   171  ALA171     -0.2867
    108  CB        43.1620   35.3980   20.3530 C.3   171  ALA171      0.0290
    109  N         43.1750   32.2350   25.4460 N.3   173  GLU173     -0.1245
    110  CA        42.0420   31.3840   25.8220 C.3   173  GLU173      0.1567
    111  C         41.0330   32.2130   26.6080 C.2   173  GLU173      0.2260
    112  O         41.4010   33.0000   27.5180 O.2   173  GLU173     -0.2867
    113  CB        42.4980   30.2490   26.6770 C.3   173  GLU173      0.0388
    114  CG        43.3490   29.2010   26.0030 C.3   173  GLU173      0.1160
    115  CD        43.8210   28.1790   27.0070 C.2   173  GLU173      0.3649
    116  OE1       43.4670   28.3030   28.2040 O.co2 173  GLU173     -0.2457
    117  OE2       44.5150   27.2410   26.6100 O.co2 173  GLU173     -0.2457
    118  N         34.2650   19.1740   21.5200 N.3   205  ASP205     -0.1239
    119  CA        34.9980   19.3590   22.8050 C.3   205  ASP205      0.1674
    120  C         35.0100   20.8210   23.2120 C.2   205  ASP205      0.2266
    121  O         35.9380   21.2630   23.8640 O.2   205  ASP205     -0.2867
    122  CB        36.4780   18.9350   22.5640 C.3   205  ASP205      0.1410
    123  CG        37.2550   18.6620   23.8320 C.2   205  ASP205      0.3668
    124  OD1       36.6520   18.4040   24.8940 O.co2 205  ASP205     -0.2456
    125  OD2       38.5070   18.7850   23.8150 O.co2 205  ASP205     -0.2456
    126  N         34.9230   24.3530   24.7830 N.3   207  SER207     -0.1217
    127  CA        35.1400   24.7540   26.1270 C.3   207  SER207      0.1889
    128  C         35.8000   26.1090   26.2040 C.2   207  SER207      0.2288
    129  O         36.2120   26.6990   25.2360 O.2   207  SER207     -0.2866
    130  CB        36.0790   23.7050   26.8480 C.3   207  SER207      0.2089
    131  OG        37.4460   24.0050   26.4330 O.3   207  SER207     -0.2183
    132  N         38.7230   26.5520   27.1000 N.3   209  TYR209     -0.1227
    133  CA        40.1290   26.3750   26.7550 C.3   209  TYR209      0.1736
    134  C         40.3610   26.3950   25.2520 C.2   209  TYR209      0.2595
    135  O         41.4940   26.6230   24.8120 O.2   209  TYR209     -0.2718
    136  CB        40.6280   25.0670   27.3290 C.3   209  TYR209      0.0548
    137  CG        40.3530   24.9330   28.7960 C.ar  209  TYR209     -0.0200
    138  CD1       41.0180   25.7350   29.7030 C.ar  209  TYR209     -0.0009
    139  CD2       39.4280   23.9930   29.2790 C.ar  209  TYR209     -0.0009
    140  CE1       40.7740   25.6350   31.0720 C.ar  209  TYR209      0.0417
    141  CE2       39.1720   23.8860   30.6600 C.ar  209  TYR209      0.0417
    142  CZ        39.8580   24.7040   31.5300 C.ar  209  TYR209      0.1957
    143  OH        39.6230   24.6510   32.8610 O.3   209  TYR209     -0.2866
    144  N         39.2770   26.3250   24.4360 N.am  210  ASN210     -0.1974
    145  CA        39.5040   26.3650   23.0150 C.3   210  ASN210      0.1688
    146  C         38.6190   27.3880   22.2640 C.2   210  ASN210      0.2292
    147  O         38.5560   27.3640   21.0510 O.2   210  ASN210     -0.2864
    148  CB        39.4120   24.9640   22.4310 C.3   210  ASN210      0.1181
    149  CG        38.1280   24.2470   22.8010 C.2   210  ASN210      0.2629
    150  OD1       37.0580   24.8870   22.8120 O.2   210  ASN210     -0.2716
    151  ND2       38.2310   22.9250   23.1870 N.am  210  ASN210     -0.0877
    152  N         39.2510   31.1970   21.6940 N.3   212  LEU212     -0.1245
    153  CA        40.2160   32.2420   21.8940 C.3   212  LEU212      0.1561
    154  C         39.5550   33.5940   21.7350 C.2   212  LEU212      0.2260
    155  O         38.6990   33.7760   20.8690 O.2   212  LEU212     -0.2867
    156  CB        41.3670   32.0900   20.8770 C.3   212  LEU212      0.0270
    157  CG        42.1050   30.7410   20.9050 C.3   212  LEU212      0.0019
    158  CD1       43.3990   30.8270   20.0230 C.3   212  LEU212      0.0001
    159  CD2       42.4900   30.2730   22.2810 C.3   212  LEU212      0.0001
    160  N         39.2790   26.8380   18.2360 N.3   221  ILE221     -0.1231
    161  CA        40.2830   25.8520   17.8780 C.3   221  ILE221      0.1692
    162  C         39.9220   24.4790   18.4480 C.2   221  ILE221      0.2592
    163  O         38.9830   24.3450   19.2180 O.2   221  ILE221     -0.2718
    164  CB        41.7100   26.2880   18.3650 C.3   221  ILE221      0.0266
    165  CG1       41.7110   26.3890   19.8840 C.3   221  ILE221      0.0019
    166  CG2       42.1100   27.5610   17.6320 C.3   221  ILE221      0.0020
    167  CD1       43.1220   26.5960   20.4540 C.3   221  ILE221      0.0001
    168  N         40.7460   23.4830   18.1150 N.am  222  ASP222     -0.1974
    169  CA        40.7270   22.1900   18.7450 C.3   222  ASP222      0.1709
    170  C         39.6330   21.2210   18.2750 C.2   222  ASP222      0.2293
    171  O         38.6630   20.9250   18.9910 O.2   222  ASP222     -0.2864
    172  CB        40.6570   22.3350   20.2770 C.3   222  ASP222      0.1436
    173  CG        40.9340   21.0440   20.9790 C.2   222  ASP222      0.3671
    174  OD1       40.4310   20.8780   22.1270 O.co2 222  ASP222     -0.2456
    175  OD2       41.6310   20.1380   20.4760 O.co2 222  ASP222     -0.2456
@<TRIPOS>BOND
     1    86    85   ar
     2    67    66    2
     3    66    65    1
     4    87    85   ar
     5    85    84    1
     6    83    84    1
     7    83    80    1
     8    72    71    1
     9    72    73    1
    10    72    75    1
    11    79    73   am
    12    79    80    1
    13    73    74    2
    14    80    81    1
    15    58    57    2
    16    57    56    1
    17    75    76    1
    18    65    64    1
    19    65    68    1
    20    64    70    1
    21    55    56    1
    22    68    69    1
    23    81    88   am
    24    81    82    2
    25    56    59    1
    26    42    41    2
    27    88    89    1
    28    76    77    1
    29    70    69    1
    30    39    40    1
    31    59    60    1
    32    91    90    2
    33    60    61    1
    34   103   101    1
    35    41    40    1
    36    77    78    1
    37    89    90    1
    38    89    92    1
    39    90    96   am
    40    92    93    1
    41    40    43    1
    42   101   100    1
    43    49    48    2
    44    61    62   ar
    45    61    63   ar
    46    46    47    1
    47    96    97    1
    48    45    43    1
    49    97   100    1
    50    97    98    1
    51    43    44    1
    52    93    94    1
    53    93    95    1
    54    48    47    1
    55   100   102    1
    56    47    50    1
    57    50    51    1
    58    98    99    2
    59   166   164    1
    60   161   160    1
    61   161   164    1
    62   161   162    1
    63    51    52    1
    64    52    53    1
    65   168   162   am
    66   168   169    1
    67   170   169    1
    68   170   171    2
    69   164   165    1
    70   162   163    2
    71   169   172    1
    72    54    53    1
    73    37    36    1
    74   165   167    1
    75   158   157    1
    76   104   105    1
    77   172   173    1
    78   108   105    1
    79    34    33    1
    80    34    35    2
    81    33    36    1
    82    33    32    1
    83   175   173   ar
    84    36    38    1
    85   155   154    2
    86   156   157    1
    87   156   153    1
    88   157   159    1
    89   173   174   ar
    90   147   146    2
    91   105   106    1
    92     7     8    1
    93     7     6    1
    94    30    31    1
    95    30    27    1
    96   118   119    1
    97   152   153    1
    98   154   153    1
    99    20    19    2
   100   107   106    2
   101     5     6    1
   102     5     2    1
   103   146   145    1
   104    27    28    1
   105    27    26    1
   106   148   149    1
   107   148   145    1
   108   122   119    1
   109   122   123    1
   110     1     2    1
   111   149   150    2
   112   149   151   am
   113   119   120    1
   114    28    29    2
   115   145   144    1
   116    19    26   am
   117    19    18    1
   118   120   121    2
   119     2     3    1
   120   125   123   ar
   121   123   124   ar
   122    21    18    1
   123    21    22    1
   124    12    11    2
   125    18    17    1
   126   144   134   am
   127     9     3   am
   128     9    10    1
   129     3     4    2
   130   126   127    1
   131    25    23   ar
   132   135   134    2
   133    22    23    1
   134   129   128    2
   135   134   133    1
   136    11    10    1
   137   109   110    1
   138    23    24   ar
   139   110   111    1
   140   110   113    1
   141   114   113    1
   142   114   115    1
   143   127   128    1
   144   127   130    1
   145   131   130    1
   146   111   112    2
   147   117   115   ar
   148   133   132    1
   149   133   136    1
   150    13    14    1
   151    16    15    2
   152   115   116   ar
   153   136   137    1
   154    15    14    1
   155   137   139   ar
   156   137   138   ar
   157   139   141   ar
   158   138   140   ar
   159   141   142   ar
   160   140   142   ar
   161   142   143    1
