@<TRIPOS>MOLECULE
tmp/1tqpA00.pdb
 132 122 0 0 0
SMALL
GASTEIGER

@<TRIPOS>ATOM
      1  N         53.0060   25.0560   24.6410 N.3    95  GLY95      -0.1225
      2  CA        52.5480   24.3470   25.8080 C.3    95  GLY95       0.1811
      3  C         52.3510   22.8750   25.4120 C.2    95  GLY95       0.2280
      4  O         52.3320   22.4970   24.2310 O.2    95  GLY95      -0.2866
      5  N         46.8260   15.8630   25.7530 N.3    99  GLU99      -0.1231
      6  CA        46.3530   15.5250   24.3890 C.3    99  GLU99       0.1699
      7  C         47.3500   15.8990   23.2320 C.2    99  GLU99       0.2592
      8  O         47.1830   15.4630   22.1050 O.2    99  GLU99      -0.2718
      9  CB        44.9790   16.2110   24.0370 C.3    99  GLU99       0.0402
     10  CG        43.9720   16.6130   25.1270 C.3    99  GLU99       0.1161
     11  CD        43.4850   15.4230   25.9590 C.2    99  GLU99       0.3649
     12  OE1       43.5330   15.5520   27.2220 O.co2  99  GLU99      -0.2457
     13  OE2       43.0680   14.3690   25.3680 O.co2  99  GLU99      -0.2457
     14  N         48.2500   16.8500   23.4320 N.am  100  SER100     -0.1952
     15  CA        49.0260   17.4490   22.3360 C.3   100  SER100      0.1924
     16  C         50.1880   18.1930   22.9190 C.2   100  SER100      0.2314
     17  O         50.1920   18.4770   24.1310 O.2   100  SER100     -0.2863
     18  CB        48.1130   18.4220   21.5330 C.3   100  SER100      0.2116
     19  OG        48.0590   19.7020   22.1510 O.3   100  SER100     -0.2180
     20  N         52.1580   21.6190   21.4060 N.3   102  VAL102     -0.1245
     21  CA        52.0060   22.7110   20.5010 C.3   102  VAL102      0.1561
     22  C         53.2790   23.5050   20.4860 C.2   102  VAL102      0.2260
     23  O         53.7110   23.9810   21.5430 O.2   102  VAL102     -0.2867
     24  CB        50.8490   23.6190   20.8870 C.3   102  VAL102      0.0252
     25  CG1       50.7520   24.7950   19.8120 C.3   102  VAL102      0.0019
     26  CG2       49.6140   22.8350   20.8760 C.3   102  VAL102      0.0019
     27  N         51.7960   27.5680   14.1840 N.3   114  VAL114     -0.1245
     28  CA        51.9850   26.5100   15.1210 C.3   114  VAL114      0.1561
     29  C         51.8890   25.1710   14.4730 C.2   114  VAL114      0.2260
     30  O         51.1210   24.9800   13.5420 O.2   114  VAL114     -0.2867
     31  CB        51.0600   26.5610   16.3760 C.3   114  VAL114      0.0252
     32  CG1       51.0100   27.9840   17.0020 C.3   114  VAL114      0.0019
     33  CG2       49.7640   26.0130   16.1930 C.3   114  VAL114      0.0019
     34  N         50.9070   21.4060   15.8980 N.3   116  LYS116     -0.1245
     35  CA        50.3650   20.6730   17.0340 C.3   116  LYS116      0.1561
     36  C         50.5220   19.1720   16.8460 C.2   116  LYS116      0.2260
     37  O         50.0790   18.5700   15.8340 O.2   116  LYS116     -0.2867
     38  CB        48.8850   21.1030   17.1600 C.3   116  LYS116      0.0271
     39  CG        48.0290   20.3370   18.1340 C.3   116  LYS116      0.0035
     40  CD        46.5020   20.8870   18.1850 C.3   116  LYS116      0.0206
     41  CE        45.7850   20.2020   19.2680 C.3   116  LYS116      0.1093
     42  NZ        44.3780   20.5780   19.1680 N.3   116  LYS116     -0.1314
     43  N         41.6290   28.8890   13.1500 N.3   150  PRO150     -0.2116
     44  CA        42.8840   29.1070   12.4340 C.3   150  PRO150      0.1372
     45  C         42.7750   28.6780   10.9420 C.2   150  PRO150      0.2244
     46  O         42.1310   27.6990   10.6200 O.2   150  PRO150     -0.2868
     47  CB        43.8380   28.2280   13.2240 C.3   150  PRO150      0.0268
     48  CG        43.2590   28.2090   14.5950 C.3   150  PRO150      0.0207
     49  CD        41.8130   28.0300   14.3440 C.3   150  PRO150      0.0892
     50  N         47.7720   28.3400   11.3430 N.3   162  GLU162     -0.1231
     51  CA        47.9800   29.7280   11.7110 C.3   162  GLU162      0.1699
     52  C         48.0550   29.9790   13.2020 C.2   162  GLU162      0.2592
     53  O         47.3500   29.3500   14.0050 O.2   162  GLU162     -0.2718
     54  CB        46.7480   30.4910   11.2350 C.3   162  GLU162      0.0402
     55  CG        46.8610   31.9660   11.5170 C.3   162  GLU162      0.1161
     56  CD        45.5870   32.6630   11.0690 C.2   162  GLU162      0.3649
     57  OE1       44.5940   31.9400   10.7740 O.co2 162  GLU162     -0.2457
     58  OE2       45.5750   33.8970   10.9790 O.co2 162  GLU162     -0.2457
     59  N         49.0090   30.8290   13.5530 N.am  163  LEU163     -0.1966
     60  CA        49.1910   31.3380   14.9160 C.3   163  LEU163      0.1728
     61  C         48.1210   32.3800   15.1390 C.2   163  LEU163      0.2616
     62  O         48.0290   33.3560   14.4230 O.2   163  LEU163     -0.2715
     63  CB        50.5900   31.9320   15.1460 C.3   163  LEU163      0.0311
     64  CG        51.2330   32.2970   16.5180 C.3   163  LEU163      0.0022
     65  CD1       51.7580   33.7080   16.6070 C.3   163  LEU163      0.0001
     66  CD2       50.5520   31.9750   17.7480 C.3   163  LEU163      0.0001
     67  N         47.3490   32.1800   16.1940 N.am  164  ILE164     -0.1977
     68  CA        46.3280   33.1550   16.5150 C.3   164  ILE164      0.1596
     69  C         46.8800   33.9570   17.6550 C.2   164  ILE164      0.2287
     70  O         47.2470   33.3920   18.6620 O.2   164  ILE164     -0.2864
     71  CB        45.0730   32.4980   16.9840 C.3   164  ILE164      0.0276
     72  CG1       44.4060   31.6340   15.9210 C.3   164  ILE164      0.0022
     73  CG2       44.0250   33.6090   17.2950 C.3   164  ILE164      0.0022
     74  CD1       44.2980   32.3040   14.5860 C.3   164  ILE164      0.0001
     75  N         45.8640   35.5040   20.4850 N.3   166  ALA166     -0.1245
     76  CA        44.7200   35.6450   21.3800 C.3   166  ALA166      0.1562
     77  C         44.9040   34.7140   22.5560 C.2   166  ALA166      0.2260
     78  O         45.6020   33.6950   22.4780 O.2   166  ALA166     -0.2867
     79  CB        43.4450   35.4360   20.6710 C.3   166  ALA166      0.0290
     80  N         43.3060   32.1910   25.7890 N.3   168  GLU168     -0.1245
     81  CA        42.1880   31.3150   26.1340 C.3   168  GLU168      0.1567
     82  C         41.1910   32.1690   26.8910 C.2   168  GLU168      0.2260
     83  O         41.5630   32.9340   27.8060 O.2   168  GLU168     -0.2867
     84  CB        42.6700   30.2170   27.0560 C.3   168  GLU168      0.0388
     85  CG        43.6490   29.2450   26.3490 C.3   168  GLU168      0.1160
     86  CD        44.0260   28.0810   27.2730 C.2   168  GLU168      0.3649
     87  OE1       43.6930   28.1430   28.4800 O.co2 168  GLU168     -0.2457
     88  OE2       44.6180   27.0800   26.8170 O.co2 168  GLU168     -0.2457
     89  N         38.7990   26.5290   27.4380 N.3   203  TYR203     -0.1227
     90  CA        40.1980   26.3370   27.1380 C.3   203  TYR203      0.1736
     91  C         40.4330   26.3890   25.6410 C.2   203  TYR203      0.2595
     92  O         41.5560   26.6280   25.2410 O.2   203  TYR203     -0.2718
     93  CB        40.6960   24.9560   27.6720 C.3   203  TYR203      0.0548
     94  CG        40.4420   24.8560   29.1620 C.ar  203  TYR203     -0.0200
     95  CD1       41.0740   25.7390   30.0410 C.ar  203  TYR203     -0.0009
     96  CD2       39.5500   23.9290   29.6770 C.ar  203  TYR203     -0.0009
     97  CE1       40.8070   25.7070   31.4010 C.ar  203  TYR203      0.0417
     98  CE2       39.2390   23.9110   31.0550 C.ar  203  TYR203      0.0417
     99  CZ        39.9170   24.7510   31.8910 C.ar  203  TYR203      0.1957
    100  OH        39.6150   24.7580   33.1870 O.3   203  TYR203     -0.2866
    101  N         39.3800   26.3320   24.8150 N.am  204  ASN204     -0.1974
    102  CA        39.6000   26.3620   23.3820 C.3   204  ASN204      0.1688
    103  C         38.7890   27.3640   22.6210 C.2   204  ASN204      0.2292
    104  O         38.7970   27.4080   21.3910 O.2   204  ASN204     -0.2864
    105  CB        39.5530   24.9580   22.8280 C.3   204  ASN204      0.1181
    106  CG        38.3870   24.2450   23.2640 C.2   204  ASN204      0.2629
    107  OD1       37.2760   24.8560   23.2450 O.2   204  ASN204     -0.2716
    108  ND2       38.5560   22.9110   23.5890 N.am  204  ASN204     -0.0877
    109  N         39.5110   31.1860   21.9990 N.3   206  LEU206     -0.1245
    110  CA        40.5070   32.1990   22.1940 C.3   206  LEU206      0.1561
    111  C         39.8500   33.5190   21.9710 C.2   206  LEU206      0.2260
    112  O         38.9750   33.6760   21.1470 O.2   206  LEU206     -0.2867
    113  CB        41.7020   32.0790   21.2360 C.3   206  LEU206      0.0270
    114  CG        42.4000   30.7190   21.1630 C.3   206  LEU206      0.0019
    115  CD1       43.6830   30.7350   20.1950 C.3   206  LEU206      0.0001
    116  CD2       42.7800   30.2870   22.5370 C.3   206  LEU206      0.0001
    117  N         39.5060   26.8920   18.4980 N.3   215  ILE215     -0.1231
    118  CA        40.5130   25.9200   18.1530 C.3   215  ILE215      0.1692
    119  C         40.1460   24.5730   18.7530 C.2   215  ILE215      0.2592
    120  O         39.1450   24.4340   19.4780 O.2   215  ILE215     -0.2718
    121  CB        41.9060   26.3410   18.6870 C.3   215  ILE215      0.0266
    122  CG1       41.8770   26.4530   20.1640 C.3   215  ILE215      0.0019
    123  CG2       42.3360   27.6090   18.0610 C.3   215  ILE215      0.0020
    124  CD1       43.3090   26.5730   20.7580 C.3   215  ILE215      0.0001
    125  N         41.0090   23.6130   18.4330 N.am  216  ASP216     -0.1974
    126  CA        41.0440   22.2760   18.9990 C.3   216  ASP216      0.1709
    127  C         39.9020   21.3070   18.5100 C.2   216  ASP216      0.2293
    128  O         38.9830   20.9870   19.2800 O.2   216  ASP216     -0.2864
    129  CB        41.0680   22.3870   20.5520 C.3   216  ASP216      0.1436
    130  CG        41.3780   21.0750   21.2120 C.2   216  ASP216      0.3671
    131  OD1       41.0960   20.9650   22.4550 O.co2 216  ASP216     -0.2456
    132  OD2       41.9550   20.1500   20.5350 O.co2 216  ASP216     -0.2456
@<TRIPOS>BOND
     1    46    45    2
     2    57    56   ar
     3    45    44    1
     4    58    56   ar
     5    56    55    1
     6    54    55    1
     7    54    51    1
     8    50    51    1
     9    51    52    1
    10    44    43    1
    11    44    47    1
    12    43    49    1
    13    52    59   am
    14    52    53    2
    15    47    48    1
    16    30    29    2
    17    59    60    1
    18    27    28    1
    19    49    48    1
    20    62    61    2
    21    29    28    1
    22    74    72    1
    23    60    61    1
    24    60    63    1
    25    28    31    1
    26    61    67   am
    27    63    64    1
    28    37    36    2
    29    34    35    1
    30    72    71    1
    31    33    31    1
    32    67    68    1
    33    31    32    1
    34    68    71    1
    35    68    69    1
    36    64    65    1
    37    64    66    1
    38    36    35    1
    39    71    73    1
    40    35    38    1
    41    38    39    1
    42    69    70    2
    43   123   121    1
    44    39    40    1
    45   118   117    1
    46   118   121    1
    47   118   119    1
    48    40    41    1
    49   125   119   am
    50   125   126    1
    51   127   126    1
    52   127   128    2
    53   121   122    1
    54   119   120    2
    55   126   129    1
    56    42    41    1
    57    25    24    1
    58   122   124    1
    59   115   114    1
    60    75    76    1
    61    22    21    1
    62    22    23    2
    63    21    24    1
    64    21    20    1
    65   132   130   ar
    66   129   130    1
    67    79    76    1
    68    26    24    1
    69   112   111    2
    70   114   113    1
    71   114   116    1
    72   130   131   ar
    73   113   110    1
    74    76    77    1
    75   104   103    2
    76    18    19    1
    77    18    15    1
    78   111   110    1
    79   109   110    1
    80     8     7    2
    81    15    16    1
    82    15    14    1
    83    78    77    2
    84   103   102    1
    85   105   106    1
    86   105   102    1
    87    16    17    2
    88     7    14   am
    89     7     6    1
    90   107   106    2
    91   106   108   am
    92   102   101    1
    93     9     6    1
    94     9    10    1
    95     4     3    2
    96     6     5    1
    97     1     2    1
    98   101    91   am
    99    10    11    1
   100    92    91    2
   101    13    11   ar
   102     3     2    1
   103    91    90    1
   104    80    81    1
   105    11    12   ar
   106    81    82    1
   107    81    84    1
   108    85    84    1
   109    85    86    1
   110    88    86   ar
   111    82    83    2
   112    90    89    1
   113    90    93    1
   114    86    87   ar
   115    93    94    1
   116    94    96   ar
   117    94    95   ar
   118    96    98   ar
   119    95    97   ar
   120    98    99   ar
   121    97    99   ar
   122    99   100    1
