@<TRIPOS>MOLECULE
tmp/1trnA00.pdb
 99 98 0 0 0
SMALL
GASTEIGER

@<TRIPOS>ATOM
      1  N         23.6580   15.2850   -6.8550 N.3    24  PHE24      -0.1227
      2  CA        24.1830   16.6200   -7.0760 C.3    24  PHE24       0.1736
      3  C         23.3770   17.6600   -6.3180 C.2    24  PHE24       0.2595
      4  O         23.8290   18.7790   -6.1340 O.2    24  PHE24      -0.2718
      5  CB        24.2240   16.9620   -8.5750 C.3    24  PHE24       0.0547
      6  CG        22.8850   16.9670   -9.2430 C.ar   24  PHE24      -0.0202
      7  CD1       22.0780   18.1010   -9.2080 C.ar   24  PHE24      -0.0042
      8  CD2       22.4430   15.8540   -9.9390 C.ar   24  PHE24      -0.0042
      9  CE1       20.8550   18.1160   -9.8460 C.ar   24  PHE24      -0.0003
     10  CE2       21.2130   15.8670  -10.5820 C.ar   24  PHE24      -0.0003
     11  CZ        20.4190   17.0000  -10.5290 C.ar   24  PHE24      -0.0000
     12  N         22.2500   17.2410   -5.7540 N.am   25  CYS25      -0.1970
     13  CA        21.3700   18.1480   -5.0200 C.3    25  CYS25       0.1712
     14  C         20.4050   17.3780   -4.1290 C.2    25  CYS25       0.2296
     15  O         20.2610   16.1560   -4.2400 O.2    25  CYS25      -0.2864
     16  CB        20.5520   19.0230   -5.9940 C.3    25  CYS25       0.0983
     17  SG        21.3930   20.4930   -6.6630 S.3    25  CYS25      -0.0798
     18  N         18.1990   26.0170   -9.5700 N.3    40  HIS40      -0.1241
     19  CA        19.5480   25.9010  -10.0760 C.3    40  HIS40       0.1621
     20  C         20.1090   24.4690  -10.0070 C.2    40  HIS40       0.2264
     21  O         21.1790   24.1950  -10.5360 O.2    40  HIS40      -0.2867
     22  CB        20.4630   26.9450   -9.4080 C.3    40  HIS40       0.0745
     23  CG        21.0310   26.5330   -8.0880 C.ar   40  HIS40       0.0817
     24  ND1       20.4040   26.8150   -6.8960 N.ar   40  HIS40      -0.2268
     25  CD2       22.2350   26.0060   -7.7650 C.ar   40  HIS40       0.1154
     26  CE1       21.1970   26.4870   -5.8910 C.ar   40  HIS40       0.1986
     27  NE2       22.3130   25.9910   -6.3920 N.ar   40  HIS40      -0.2212
     28  N         24.8760   25.5020    5.6480 N.3   171  SER171     -0.1202
     29  CA        24.7390   24.6270    4.4880 C.3   171  SER171      0.2020
     30  C         25.9700   24.8420    3.5940 C.2   171  SER171      0.2619
     31  O         26.7590   25.7540    3.8280 O.2   171  SER171     -0.2717
     32  CB        23.4580   24.9500    3.7270 C.3   171  SER171      0.2103
     33  OG        23.5720   26.1830    3.0500 O.3   171  SER171     -0.2182
     34  N         26.2180   23.9170    2.6770 N.am  172  CYS172     -0.1955
     35  CA        27.4340   23.9820    1.8840 C.3   172  CYS172      0.1843
     36  C         27.2440   23.2860    0.5480 C.2   172  CYS172      0.2625
     37  O         26.1500   22.8190    0.2360 O.2   172  CYS172     -0.2714
     38  CB        28.5900   23.3460    2.6580 C.3   172  CYS172      0.0997
     39  SG        30.2560   23.8870    2.1430 S.3   172  CYS172     -0.0797
     40  N         28.2910   23.2890   -0.2690 N.am  173  GLN173     -0.1963
     41  CA        28.2610   22.6620   -1.5790 C.3   173  GLN173      0.1733
     42  C         27.6810   21.2320   -1.5420 C.2   173  GLN173      0.2616
     43  O         28.1790   20.3680   -0.8170 O.2   173  GLN173     -0.2715
     44  CB        29.6790   22.6480   -2.1530 C.3   173  GLN173      0.0408
     45  CG        29.7450   22.6310   -3.6610 C.3   173  GLN173      0.0908
     46  CD        29.0860   23.8430   -4.3090 C.2   173  GLN173      0.2608
     47  OE1       29.1210   24.9650   -3.7800 O.2   173  GLN173     -0.2717
     48  NE2       28.4900   23.6250   -5.4720 N.am  173  GLN173     -0.0878
     49  N         26.5940   21.0120   -2.2840 N.am  174  GLY174     -0.1955
     50  CA        25.9420   19.7120   -2.3140 C.3   174  GLY174      0.1869
     51  C         24.6130   19.6890   -1.5760 C.2   174  GLY174      0.2309
     52  O         23.8170   18.7600   -1.7300 O.2   174  GLY174     -0.2863
     53  N         22.2460   22.0710   -1.8480 N.3   176  SER176     -0.1217
     54  CA        21.2460   22.8230   -2.6260 C.3   176  SER176      0.1889
     55  C         20.0190   21.9990   -2.9750 C.2   176  SER176      0.2288
     56  O         20.1390   20.8240   -3.3050 O.2   176  SER176     -0.2866
     57  CB        21.8790   23.3470   -3.9200 C.3   176  SER176      0.2089
     58  OG        22.8930   24.3680   -3.6390 O.3   176  SER176     -0.2183
     59  N         17.4360   25.0830    0.2240 N.3   190  VAL190     -0.1231
     60  CA        18.8290   25.5420    0.2590 C.3   190  VAL190      0.1692
     61  C         19.1630   26.1980   -1.0830 C.2   190  VAL190      0.2593
     62  O         19.0640   25.5640   -2.1400 O.2   190  VAL190     -0.2718
     63  CB        19.8210   24.3640    0.5430 C.3   190  VAL190      0.0266
     64  CG1       21.2280   24.8930    0.6940 C.3   190  VAL190      0.0020
     65  CG2       19.4300   23.6270    1.8300 C.3   190  VAL190      0.0020
     66  N         19.4930   27.4850   -1.0490 N.am  191  SER191     -0.1938
     67  CA        19.6970   28.2080   -2.2910 C.3   191  SER191      0.2055
     68  C         21.1470   28.5590   -2.5750 C.2   191  SER191      0.2643
     69  O         21.7440   28.0160   -3.5050 O.2   191  SER191     -0.2714
     70  CB        18.8480   29.4730   -2.3210 C.3   191  SER191      0.2130
     71  OG        18.7880   29.9430   -3.6470 O.3   191  SER191     -0.2179
     72  N         21.6990   29.5140   -1.8320 N.am  192  TRP192     -0.1959
     73  CA        23.0700   29.9550   -2.0750 C.3   192  TRP192      0.1771
     74  C         23.7340   30.4810   -0.8220 C.2   192  TRP192      0.2620
     75  O         23.1000   30.5870    0.2260 O.2   192  TRP192     -0.2715
     76  CB        23.1140   31.0240   -3.1870 C.3   192  TRP192      0.0590
     77  CG        22.2730   32.2560   -2.9470 C.ar  192  TRP192      0.0006
     78  CD1       20.9240   32.3760   -3.1270 C.ar  192  TRP192      0.0946
     79  CD2       22.7290   33.5410   -2.4870 C.ar  192  TRP192      0.0152
     80  NE1       20.5090   33.6420   -2.7940 N.ar  192  TRP192     -0.2442
     81  CE2       21.5950   34.3780   -2.3970 C.ar  192  TRP192      0.0810
     82  CE3       23.9790   34.0590   -2.1360 C.ar  192  TRP192      0.0012
     83  CZ2       21.6770   35.7080   -1.9680 C.ar  192  TRP192      0.0191
     84  CZ3       24.0570   35.3780   -1.7110 C.ar  192  TRP192      0.0001
     85  CH2       22.9120   36.1870   -1.6320 C.ar  192  TRP192      0.0015
     86  N         25.0340   30.7390   -0.9110 N.am  193  GLY193     -0.1954
     87  CA        25.7300   31.3950    0.1810 C.3   193  GLY193      0.1869
     88  C         27.0310   32.0230   -0.2830 C.2   193  GLY193      0.2309
     89  O         27.4150   31.8820   -1.4460 O.2   193  GLY193     -0.2863
     90  N         30.5480   31.3600    0.4640 N.3   195  GLY195     -0.1210
     91  CA        31.3410   30.3740    1.1730 C.3   195  GLY195      0.1956
     92  C         30.4410   29.5160    2.0460 C.2   195  GLY195      0.2612
     93  O         29.2230   29.5210    1.8840 O.2   195  GLY195     -0.2717
     94  N         31.0270   28.8220    3.0110 N.am  196  CYS196     -0.1970
     95  CA        30.2530   27.9750    3.9150 C.3   196  CYS196      0.1712
     96  C         30.6530   28.2970    5.3230 C.2   196  CYS196      0.2296
     97  O         31.8380   28.2760    5.6490 O.2   196  CYS196     -0.2864
     98  CB        30.5450   26.4890    3.6750 C.3   196  CYS196      0.0983
     99  SG        30.0890   25.9050    2.0270 S.3   196  CYS196     -0.0798
@<TRIPOS>BOND
     1    10    11   ar
     2    10     8   ar
     3    21    20    2
     4    11     9   ar
     5    19    20    1
     6    19    18    1
     7    19    22    1
     8     8     6   ar
     9     9     7   ar
    10    22    23    1
    11     6     7   ar
    12     6     5    1
    13     5     2    1
    14    23    25   ar
    15    23    24   ar
    16    25    27   ar
    17     2     1    1
    18     2     3    1
    19    24    26   ar
    20    17    16    1
    21    27    26   ar
    22     3     4    2
    23     3    12   am
    24    16    13    1
    25    12    13    1
    26    48    46   am
    27    13    14    1
    28    46    47    2
    29    46    45    1
    30    15    14    2
    31    57    58    1
    32    57    54    1
    33    45    44    1
    34    71    70    1
    35    69    68    2
    36    56    55    2
    37    76    77    1
    38    76    73    1
    39    78    77   ar
    40    78    80   ar
    41    55    54    1
    42    77    79   ar
    43    80    81   ar
    44    54    53    1
    45    68    67    1
    46    68    72   am
    47    79    81   ar
    48    79    82   ar
    49    81    83   ar
    50    70    67    1
    51    50    49    1
    52    50    51    1
    53    67    66    1
    54    49    42   am
    55    44    41    1
    56    62    61    2
    57    82    84   ar
    58    73    72    1
    59    73    74    1
    60    83    85   ar
    61    52    51    2
    62    84    85   ar
    63    41    42    1
    64    41    40    1
    65    42    43    2
    66    89    88    2
    67    61    66   am
    68    61    60    1
    69    86    74   am
    70    86    87    1
    71    74    75    2
    72    88    87    1
    73    40    36   am
    74    59    60    1
    75    37    36    2
    76    60    63    1
    77    90    91    1
    78    63    64    1
    79    63    65    1
    80    36    35    1
    81    91    92    1
    82    93    92    2
    83    35    38    1
    84    35    34    1
    85    99    39    1
    86    99    98    1
    87    92    94   am
    88    39    38    1
    89    34    30   am
    90    94    95    1
    91    33    32    1
    92    30    31    2
    93    30    29    1
    94    98    95    1
    95    32    29    1
    96    95    96    1
    97    29    28    1
    98    96    97    2
