@<TRIPOS>MOLECULE
tmp/1tryA00.pdb
 102 102 0 0 0
SMALL
GASTEIGER

@<TRIPOS>ATOM
      1  N         -7.4710   43.2580   12.7220 N.3    25  TRP25      -0.1227
      2  CA        -6.6580   42.0340   12.7350 C.3    25  TRP25       0.1737
      3  C         -7.4710   40.7540   12.7070 C.2    25  TRP25       0.2595
      4  O         -7.3350   39.9500   11.7750 O.2    25  TRP25      -0.2718
      5  CB        -5.7650   42.0830   13.9260 C.3    25  TRP25       0.0564
      6  CG        -4.7750   40.9910   14.0110 C.ar   25  TRP25       0.0003
      7  CD1       -4.7610   39.9690   14.9060 C.ar   25  TRP25       0.0946
      8  CD2       -3.6100   40.8070   13.1780 C.ar   25  TRP25       0.0152
      9  NE1       -3.6730   39.1550   14.7070 N.ar   25  TRP25      -0.2442
     10  CE2       -2.9590   39.6500   13.6670 C.ar   25  TRP25       0.0810
     11  CE3       -3.1240   41.5050   12.0750 C.ar   25  TRP25       0.0012
     12  CZ2       -1.7900   39.1520   13.0480 C.ar   25  TRP25       0.0191
     13  CZ3       -1.9510   41.0620   11.5040 C.ar   25  TRP25       0.0001
     14  CH2       -1.3480   39.8960   11.9620 C.ar   25  TRP25       0.0015
     15  N         -8.3520   40.6090   13.6830 N.am   26  CYS26      -0.1970
     16  CA        -9.1540   39.3880   13.7320 C.3    26  CYS26       0.1712
     17  C        -10.5130   39.6350   14.4030 C.2    26  CYS26       0.2296
     18  O        -10.7600   40.7360   14.8220 O.2    26  CYS26      -0.2864
     19  CB        -8.4310   38.2650   14.5490 C.3    26  CYS26       0.0983
     20  SG        -7.0430   37.4610   13.6450 S.3    26  CYS26      -0.0798
     21  N         -3.9200   31.2660   15.3130 N.3    41  HIS41      -0.1241
     22  CA        -3.0440   31.9840   14.3770 C.3    41  HIS41       0.1621
     23  C         -3.1480   33.5050   14.4860 C.2    41  HIS41       0.2264
     24  O         -2.2230   34.2300   14.0820 O.2    41  HIS41      -0.2867
     25  CB        -3.1820   31.3680   13.0240 C.3    41  HIS41       0.0745
     26  CG        -4.2640   31.9350   12.2000 C.ar   41  HIS41       0.0817
     27  ND1       -5.4310   31.2550   11.9530 N.ar   41  HIS41      -0.2268
     28  CD2       -4.3340   33.0940   11.5170 C.ar   41  HIS41       0.1154
     29  CE1       -6.2420   31.9390   11.1970 C.ar   41  HIS41       0.1986
     30  NE2       -5.5900   33.0760   10.9080 N.ar   41  HIS41      -0.2212
     31  N        -15.4130   33.8830    4.1000 N.3   175  SER175     -0.1202
     32  CA       -14.6720   34.5950    5.1260 C.3   175  SER175      0.2020
     33  C        -13.3870   34.9720    4.3870 C.2   175  SER175      0.2619
     34  O        -13.0770   34.3370    3.3490 O.2   175  SER175     -0.2717
     35  CB       -14.4300   33.8020    6.3970 C.3   175  SER175      0.2103
     36  OG       -13.8380   32.5610    6.0760 O.3   175  SER175     -0.2182
     37  N        -12.6870   35.9920    4.7270 N.am  176  CYS176     -0.1955
     38  CA       -11.4650   36.4900    4.0660 C.3   176  CYS176      0.1843
     39  C        -10.5090   37.0670    5.0800 C.2   176  CYS176      0.2625
     40  O        -10.7430   36.9880    6.3160 O.2   176  CYS176     -0.2714
     41  CB       -11.9030   37.3720    2.8770 C.3   176  CYS176      0.0997
     42  SG       -10.5530   37.6700    1.6470 S.3   176  CYS176     -0.0797
     43  N         -9.3990   37.6420    4.6400 N.am  177  GLN177     -0.1963
     44  CA        -8.3670   38.1970    5.4750 C.3   177  GLN177      0.1733
     45  C         -8.9420   39.2270    6.4570 C.2   177  GLN177      0.2616
     46  O         -9.5970   40.1650    6.0240 O.2   177  GLN177     -0.2715
     47  CB        -7.3090   38.9060    4.6040 C.3   177  GLN177      0.0408
     48  CG        -5.9550   38.9720    5.2730 C.3   177  GLN177      0.0908
     49  CD        -5.2120   37.6420    5.2160 C.2   177  GLN177      0.2608
     50  OE1       -4.5010   37.3430    4.2410 O.2   177  GLN177     -0.2717
     51  NE2       -5.3140   36.7720    6.2130 N.am  177  GLN177     -0.0878
     52  N         -8.6800   39.0270    7.7200 N.am  178  GLY178     -0.1955
     53  CA        -9.1860   39.8480    8.8230 C.3   178  GLY178      0.1869
     54  C        -10.4510   39.2560    9.4830 C.2   178  GLY178      0.2309
     55  O        -10.8480   39.7400   10.5440 O.2   178  GLY178     -0.2863
     56  N        -10.4400   36.0660   10.4070 N.3   180  SER180     -0.1217
     57  CA        -9.9090   35.0120   11.2440 C.3   180  SER180      0.1889
     58  C        -10.3240   35.0930   12.7020 C.2   180  SER180      0.2288
     59  O        -10.2970   36.1910   13.2330 O.2   180  SER180     -0.2866
     60  CB        -8.3750   34.8070   11.2020 C.3   180  SER180      0.2089
     61  OG        -8.1700   34.3170    9.8360 O.3   180  SER180     -0.2183
     62  N        -13.4370   31.0570   12.2700 N.3   195  VAL195     -0.1231
     63  CA       -12.8170   31.2340   10.9420 C.3   195  VAL195      0.1692
     64  C        -11.3280   30.9330   11.1060 C.2   195  VAL195      0.2593
     65  O        -10.5830   31.4060   11.9780 O.2   195  VAL195     -0.2718
     66  CB       -12.9540   32.6860   10.4670 C.3   195  VAL195      0.0266
     67  CG1      -12.2280   32.9490    9.1630 C.3   195  VAL195      0.0020
     68  CG2      -14.3970   33.1360   10.3960 C.3   195  VAL195      0.0020
     69  N        -10.8660   30.0260   10.1790 N.am  196  SER196     -0.1938
     70  CA        -9.4840   29.5750   10.3020 C.3   196  SER196      0.2055
     71  C         -8.5720   29.7600    9.0890 C.2   196  SER196      0.2643
     72  O         -7.5880   30.4980    9.2550 O.2   196  SER196     -0.2714
     73  CB        -9.4710   28.0860   10.7020 C.3   196  SER196      0.2130
     74  OG        -8.1800   27.5910   10.9820 O.3   196  SER196     -0.2179
     75  N         -8.9350   29.1060    7.9910 N.am  197  TRP197     -0.1959
     76  CA        -8.0050   29.2340    6.8150 C.3   197  TRP197      0.1771
     77  C         -8.7150   28.8830    5.5490 C.2   197  TRP197      0.2620
     78  O         -9.8660   28.5010    5.5950 O.2   197  TRP197     -0.2715
     79  CB        -6.7350   28.3980    7.0740 C.3   197  TRP197      0.0590
     80  CG        -6.9180   26.9000    7.0610 C.ar  197  TRP197      0.0006
     81  CD1       -7.3350   26.1420    8.1060 C.ar  197  TRP197      0.0946
     82  CD2       -6.6830   25.9780    5.9780 C.ar  197  TRP197      0.0152
     83  NE1       -7.3950   24.8250    7.7660 N.ar  197  TRP197     -0.2442
     84  CE2       -7.0410   24.7090    6.4480 C.ar  197  TRP197      0.0810
     85  CE3       -6.2870   26.1260    4.6550 C.ar  197  TRP197      0.0012
     86  CZ2       -6.9260   23.5380    5.6650 C.ar  197  TRP197      0.0191
     87  CZ3       -6.1880   24.9730    3.8720 C.ar  197  TRP197      0.0001
     88  CH2       -6.5040   23.7130    4.3910 C.ar  197  TRP197      0.0015
     89  N         -8.0050   29.0210    4.4160 N.am  198  GLY198     -0.1954
     90  CA        -8.6250   28.6680    3.1350 C.3   198  GLY198      0.1869
     91  C         -7.5590   29.0120    2.0590 C.2   198  GLY198      0.2309
     92  O         -6.5320   29.5490    2.3940 O.2   198  GLY198     -0.2863
     93  N         -7.1120   31.4370   -0.7100 N.3   200  GLY200     -0.1210
     94  CA        -7.6650   32.7120   -1.1860 C.3   200  GLY200      0.1956
     95  C         -9.0280   32.9470   -0.4910 C.2   200  GLY200      0.2612
     96  O         -9.2670   32.4880    0.6480 O.2   200  GLY200     -0.2717
     97  N         -9.8890   33.6520   -1.1430 N.am  201  CYS201     -0.1970
     98  CA       -11.2350   33.8990   -0.6130 C.3   201  CYS201      0.1712
     99  C        -12.2890   33.7240   -1.6580 C.2   201  CYS201      0.2296
    100  O        -12.2030   34.3470   -2.7490 O.2   201  CYS201     -0.2864
    101  CB       -11.3490   35.3470   -0.0650 C.3   201  CYS201      0.0983
    102  SG       -10.0230   35.7130    1.0640 S.3   201  CYS201     -0.0798
@<TRIPOS>BOND
     1   100    99    2
     2    99    98    1
     3    94    93    1
     4    94    95    1
     5    97    98    1
     6    97    95   am
     7    98   101    1
     8    95    96    2
     9   101   102    1
    10   102    42    1
    11    42    41    1
    12    91    92    2
    13    91    90    1
    14    41    38    1
    15    90    89    1
    16    34    33    2
    17    87    88   ar
    18    87    85   ar
    19    38    37    1
    20    38    39    1
    21    31    32    1
    22    50    49    2
    23    33    37   am
    24    33    32    1
    25    88    86   ar
    26    89    77   am
    27    47    48    1
    28    47    44    1
    29    43    39   am
    30    43    44    1
    31    85    82   ar
    32    39    40    2
    33    32    35    1
    34    49    48    1
    35    49    51   am
    36    44    45    1
    37    77    78    2
    38    77    76    1
    39    86    84   ar
    40    82    84   ar
    41    82    80   ar
    42    46    45    2
    43    36    35    1
    44    84    83   ar
    45    45    52   am
    46    76    79    1
    47    76    75    1
    48    80    79    1
    49    80    81   ar
    50    52    53    1
    51    83    81   ar
    52    75    71   am
    53    53    54    1
    54    71    72    2
    55    71    70    1
    56    67    66    1
    57    54    55    2
    58    61    60    1
    59    69    70    1
    60    69    64   am
    61    70    73    1
    62    68    66    1
    63    56    57    1
    64    66    63    1
    65    73    74    1
    66    30    29   ar
    67    30    28   ar
    68    63    64    1
    69    63    62    1
    70    64    65    2
    71    29    27   ar
    72    60    57    1
    73    57    58    1
    74    13    14   ar
    75    13    11   ar
    76    28    26   ar
    77     4     3    2
    78    27    26   ar
    79    14    12   ar
    80    11     8   ar
    81    26    25    1
    82    58    59    2
    83     3     2    1
    84     3    15   am
    85     1     2    1
    86     2     5    1
    87    25    22    1
    88    12    10   ar
    89     8    10   ar
    90     8     6   ar
    91    20    19    1
    92    10     9   ar
    93    15    16    1
    94    16    17    1
    95    16    19    1
    96     5     6    1
    97     6     7   ar
    98    24    23    2
    99    22    23    1
   100    22    21    1
   101    17    18    2
   102     9     7   ar
