@<TRIPOS>MOLECULE
tmp/1tsiA00.pdb
 101 94 0 0 0
SMALL
GASTEIGER

@<TRIPOS>ATOM
      1  N         29.8310   31.5290   14.7130 N.3    10  ASN10      -0.1240
      2  CA        30.7910   30.7070   14.0350 C.3    10  ASN10       0.1653
      3  C         30.2290   29.3220   14.2470 C.2    10  ASN10       0.2266
      4  O         29.9330   28.8900   15.3650 O.2    10  ASN10      -0.2867
      5  CB        32.2360   30.9110   14.5590 C.3    10  ASN10       0.1155
      6  CG        33.3990   30.2600   13.8290 C.2    10  ASN10       0.2627
      7  OD1       33.2300   29.5360   12.8150 O.2    10  ASN10      -0.2716
      8  ND2       34.5710   30.5410   14.4070 N.am   10  ASN10      -0.0877
      9  N         31.9000   26.7880   13.0140 N.3    12  LYS12      -0.1245
     10  CA        33.1290   26.0390   13.0710 C.3    12  LYS12       0.1561
     11  C         32.8810   24.7390   12.3810 C.2    12  LYS12       0.2260
     12  O         32.2200   24.7090   11.3380 O.2    12  LYS12      -0.2867
     13  CB        33.4930   25.6980   14.4880 C.3    12  LYS12       0.0271
     14  CG        33.7770   26.9120   15.3590 C.3    12  LYS12       0.0035
     15  CD        34.3200   26.5670   16.7290 C.3    12  LYS12       0.0206
     16  CE        34.7080   27.7680   17.5780 C.3    12  LYS12       0.1093
     17  NZ        34.7510   27.4610   19.0350 N.3    12  LYS12      -0.1314
     18  N         41.5880   32.9550   12.6650 N.3    94  HIS94      -0.1226
     19  CA        41.1280   32.1080   13.7410 C.3    94  HIS94       0.1752
     20  C         42.1200   31.2460   14.4840 C.2    94  HIS94       0.2597
     21  O         42.9030   30.4810   13.9040 O.2    94  HIS94      -0.2718
     22  CB        40.0070   31.2150   13.2320 C.3    94  HIS94       0.0759
     23  CG        39.1270   30.8330   14.3540 C.ar   94  HIS94       0.0818
     24  ND1       39.6160   30.0930   15.4040 N.ar   94  HIS94      -0.2268
     25  CD2       37.8200   31.0920   14.5340 C.ar   94  HIS94       0.1154
     26  CE1       38.6080   29.9150   16.2180 C.ar   94  HIS94       0.1986
     27  NE2       37.5130   30.5010   15.7230 N.ar   94  HIS94      -0.2212
     28  N         41.9870   31.4140   15.8020 N.am   95  SER95      -0.1938
     29  CA        42.7460   30.7140   16.8330 C.3    95  SER95       0.2055
     30  C         42.7920   29.2260   16.6020 C.2    95  SER95       0.2642
     31  O         43.8090   28.5840   16.8240 O.2    95  SER95      -0.2714
     32  CB        42.3530   30.9640   18.2890 C.3    95  SER95       0.2130
     33  OG        41.1960   30.2590   18.6790 O.3    95  SER95      -0.2179
     34  N         41.7000   28.6350   16.1800 N.am   96  GLU96      -0.1976
     35  CA        41.8290   27.2170   15.9940 C.3    96  GLU96       0.1602
     36  C         42.8030   26.8900   14.8790 C.2    96  GLU96       0.2287
     37  O         43.5710   25.9380   15.0590 O.2    96  GLU96      -0.2864
     38  CB        40.4690   26.5250   15.8380 C.3    96  GLU96       0.0415
     39  CG        39.6880   26.5510   17.1560 C.3    96  GLU96       0.1163
     40  CD        38.2160   26.6140   16.9320 C.2    96  GLU96       0.3649
     41  OE1       37.6960   26.5880   15.8170 O.co2  96  GLU96      -0.2457
     42  OE2       37.6000   26.6900   18.0880 O.co2  96  GLU96      -0.2457
     43  N         40.1900   37.4670   20.2050 N.3   166  GLU166     -0.1301
     44  CA        39.9750   36.1560   20.8300 C.3   166  GLU166      0.1252
     45  C         40.8290   35.8910   22.0480 C.3   166  GLU166      0.2009
     46  O         42.0350   35.7290   21.8120 O.3   166  GLU166     -0.2188
     47  CB        40.6840   35.1090   20.0030 C.3   166  GLU166      0.0335
     48  CG        39.8780   34.8620   18.7560 C.3   166  GLU166      0.1156
     49  CD        40.1900   33.4770   18.3220 C.2   166  GLU166      0.3649
     50  OE1       41.3660   33.4690   17.7400 O.co2 166  GLU166     -0.2457
     51  OE2       39.4410   32.5220   18.5100 O.co2 166  GLU166     -0.2457
     52  N         40.2380   30.4860   26.5580 N.3   171  ILE171     -0.1245
     53  CA        39.5550   29.5290   25.6790 C.3   171  ILE171      0.1561
     54  C         39.9790   28.0850   25.8970 C.2   171  ILE171      0.2260
     55  O         40.9500   27.5900   25.3170 O.2   171  ILE171     -0.2867
     56  CB        39.8700   29.7010   24.2000 C.3   171  ILE171      0.0252
     57  CG1       39.4440   31.0460   23.6410 C.3   171  ILE171      0.0019
     58  CG2       39.0430   28.6030   23.5400 C.3   171  ILE171      0.0019
     59  CD1       37.9230   31.1550   23.5440 C.3   171  ILE171      0.0001
     60  N         35.8950   37.5670   20.8400 N.3   210  GLY210     -0.1210
     61  CA        35.9130   36.1660   20.4520 C.3   210  GLY210      0.1956
     62  C         35.9710   35.2040   21.6210 C.2   210  GLY210      0.2612
     63  O         36.1760   34.0420   21.3550 O.2   210  GLY210     -0.2717
     64  N         35.8120   35.6150   22.8770 N.am  211  GLY211     -0.1942
     65  CA        35.8820   34.6350   23.9370 C.3   211  GLY211      0.2014
     66  C         34.5160   34.0070   24.1450 C.2   211  GLY211      0.2640
     67  O         33.6990   34.0720   23.2270 O.2   211  GLY211     -0.2714
     68  N         34.2480   33.4050   25.3170 N.am  212  SER212     -0.1935
     69  CA        32.9580   32.7560   25.5870 C.3   212  SER212      0.2055
     70  C         31.7460   33.6580   25.8170 C.2   212  SER212      0.2642
     71  O         31.5140   34.2020   26.8930 O.2   212  SER212     -0.2714
     72  CB        33.0040   31.7130   26.6900 C.3   212  SER212      0.2130
     73  OG        34.1360   30.8740   26.5660 O.3   212  SER212     -0.2179
     74  N         30.9310   33.8170   24.7940 N.am  213  VAL213     -0.1977
     75  CA        29.7660   34.6620   24.9120 C.3   213  VAL213      0.1596
     76  C         28.4920   33.8400   25.0100 C.2   213  VAL213      0.2287
     77  O         28.3910   32.8090   24.3340 O.2   213  VAL213     -0.2864
     78  CB        29.6400   35.5800   23.7030 C.3   213  VAL213      0.0276
     79  CG1       28.5490   36.6030   23.9660 C.3   213  VAL213      0.0022
     80  CG2       30.9400   36.2370   23.2760 C.3   213  VAL213      0.0022
     81  N         32.1100   37.5170   18.2910 N.3   231  LEU231     -0.1245
     82  CA        32.5570   36.3830   17.4860 C.3   231  LEU231      0.1561
     83  C         32.3770   35.1700   18.4140 C.2   231  LEU231      0.2260
     84  O         33.2950   34.7840   19.1290 O.2   231  LEU231     -0.2867
     85  CB        33.8770   36.4120   16.7130 C.3   231  LEU231      0.0270
     86  CG        33.8960   35.2050   15.7800 C.3   231  LEU231      0.0019
     87  CD1       32.8790   35.2840   14.6660 C.3   231  LEU231      0.0001
     88  CD2       35.2290   34.9940   15.1130 C.3   231  LEU231      0.0001
     89  N         30.9370   31.2520   19.7250 N.3   233  GLY233     -0.1210
     90  CA        31.1310   29.8790   19.3510 C.3   233  GLY233      0.1956
     91  C         29.9560   28.9710   19.6330 C.2   233  GLY233      0.2612
     92  O         29.0540   28.8060   18.8110 O.2   233  GLY233     -0.2717
     93  N         30.0140   28.3670   20.8140 N.am  234  GLY234     -0.1942
     94  CA        28.9980   27.4380   21.2780 C.3   234  GLY234      0.2014
     95  C         27.5460   27.9200   21.2010 C.2   234  GLY234      0.2638
     96  O         26.7130   27.1880   20.6810 O.2   234  GLY234     -0.2714
     97  N         27.2340   29.1220   21.7240 N.am  235  ALA235     -0.1977
     98  CA        25.9080   29.7170   21.7330 C.3   235  ALA235      0.1597
     99  C         25.4290   30.0180   20.3310 C.2   235  ALA235      0.2287
    100  O         24.3020   30.4570   20.1130 O.2   235  ALA235     -0.2864
    101  CB        25.9640   31.0210   22.5070 C.3   235  ALA235      0.0319
@<TRIPOS>BOND
     1    12    11    2
     2    11    10    1
     3    18    19    1
     4     7     6    2
     5     9    10    1
     6    10    13    1
     7    22    19    1
     8    22    23    1
     9    19    20    1
    10     6     8   am
    11     6     5    1
    12    21    20    2
    13     2     3    1
    14     2     5    1
    15     2     1    1
    16     3     4    2
    17    23    25   ar
    18    23    24   ar
    19    20    28   am
    20    13    14    1
    21    25    27   ar
    22    87    86    1
    23    36    37    2
    24    36    35    1
    25    88    86    1
    26    14    15    1
    27    24    26   ar
    28    27    26   ar
    29    86    85    1
    30    28    29    1
    31    41    40   ar
    32    38    35    1
    33    38    39    1
    34    35    34    1
    35    34    30   am
    36    30    31    2
    37    30    29    1
    38    85    82    1
    39    15    16    1
    40    29    32    1
    41    40    39    1
    42    40    42   ar
    43    82    81    1
    44    82    83    1
    45    16    17    1
    46    50    49   ar
    47    32    33    1
    48    49    51   ar
    49    49    48    1
    50    83    84    2
    51    48    47    1
    52    92    91    2
    53    90    91    1
    54    90    89    1
    55    91    93   am
    56    47    44    1
    57   100    99    2
    58    43    44    1
    59    99    98    1
    60    61    60    1
    61    61    62    1
    62    96    95    2
    63    93    94    1
    64    44    45    1
    65    95    94    1
    66    95    97   am
    67    63    62    2
    68    62    64   am
    69    97    98    1
    70    98   101    1
    71    46    45    1
    72    64    65    1
    73    67    66    2
    74    80    78    1
    75    58    56    1
    76    59    57    1
    77    57    56    1
    78    78    79    1
    79    78    75    1
    80    65    66    1
    81    66    68   am
    82    56    53    1
    83    77    76    2
    84    74    75    1
    85    74    70   am
    86    75    76    1
    87    55    54    2
    88    68    69    1
    89    69    70    1
    90    69    72    1
    91    53    54    1
    92    53    52    1
    93    70    71    2
    94    73    72    1
