@<TRIPOS>MOLECULE
tmp/1tslA00.pdb
 142 139 0 0 0
SMALL
GASTEIGER

@<TRIPOS>ATOM
      1  N         21.9210   50.1390  -64.0850 N.3    23  ARG23      -0.1231
      2  CA        22.4630   51.4460  -63.7150 C.3    23  ARG23       0.1694
      3  C         23.7530   51.3470  -62.9060 C.2    23  ARG23       0.2593
      4  O         24.7260   52.0540  -63.1860 O.2    23  ARG23      -0.2718
      5  CB        21.4040   52.2320  -62.9360 C.3    23  ARG23       0.0321
      6  CG        20.0980   52.3890  -63.7000 C.3    23  ARG23       0.0489
      7  CD        18.8930   52.3090  -62.7810 C.3    23  ARG23       0.2205
      8  NE        17.6380   52.1790  -63.5220 N.pl3  23  ARG23      -0.0865
      9  CZ        16.9910   53.1860  -64.1020 C.cat  23  ARG23       0.5346
     10  NH1       17.4810   54.4180  -64.0510 N.pl3  23  ARG23       0.1354
     11  NH2       15.8520   52.9570  -64.7360 N.pl3  23  ARG23       0.1354
     12  N         23.7390   50.5060  -61.8780 N.am   24  THR24      -0.1939
     13  CA        24.9160   50.3010  -61.0470 C.3    24  THR24       0.2028
     14  C         25.8420   49.3040  -61.7530 C.2    24  THR24       0.2642
     15  O         25.3900   48.5140  -62.5850 O.2    24  THR24      -0.2714
     16  CB        24.5240   49.7830  -59.6440 C.3    24  THR24       0.1808
     17  OG1       23.4570   48.8300  -59.7550 O.3    24  THR24      -0.2208
     18  CG2       24.0660   50.9350  -58.7650 C.3    24  THR24       0.0379
     19  N         27.1310   49.3360  -61.4270 N.am   25  HIS25      -0.1973
     20  CA        28.0840   48.4340  -62.0730 C.3    25  HIS25       0.1656
     21  C         27.7950   46.9560  -61.7990 C.2    25  HIS25       0.2291
     22  O         28.2470   46.0840  -62.5450 O.2    25  HIS25      -0.2864
     23  CB        29.5270   48.7830  -61.6870 C.3    25  HIS25       0.0771
     24  CG        30.5550   48.2430  -62.6370 C.ar   25  HIS25       0.0820
     25  ND1       30.2250   47.6980  -63.8580 N.ar   25  HIS25      -0.2267
     26  CD2       31.9050   48.1850  -62.5510 C.ar   25  HIS25       0.1154
     27  CE1       31.3280   47.3260  -64.4860 C.ar   25  HIS25       0.1986
     28  NE2       32.3600   47.6110  -63.7150 N.ar   25  HIS25      -0.2212
     29  N         17.8030   54.5350  -42.8660 N.3    81  ILE81      -0.1245
     30  CA        17.4880   54.1130  -44.2220 C.3    81  ILE81       0.1561
     31  C         17.5830   55.2010  -45.2980 C.2    81  ILE81       0.2260
     32  O         18.0110   54.9230  -46.4190 O.2    81  ILE81      -0.2867
     33  CB        16.1070   53.4200  -44.2670 C.3    81  ILE81       0.0252
     34  CG1       16.1540   52.1460  -43.4260 C.3    81  ILE81       0.0019
     35  CG2       15.7070   53.0880  -45.7040 C.3    81  ILE81       0.0019
     36  CD1       14.8080   51.4840  -43.2490 C.3    81  ILE81       0.0001
     37  N         21.6590   58.7220  -46.6030 N.3    84  GLU84      -0.1231
     38  CA        22.4310   59.0060  -47.8130 C.3    84  GLU84       0.1699
     39  C         21.7760   59.9950  -48.7690 C.2    84  GLU84       0.2592
     40  O         22.4490   60.8570  -49.3300 O.2    84  GLU84      -0.2718
     41  CB        22.7450   57.7170  -48.5680 C.3    84  GLU84       0.0402
     42  CG        23.6390   56.7380  -47.8260 C.3    84  GLU84       0.1161
     43  CD        24.1060   55.5930  -48.7060 C.2    84  GLU84       0.3649
     44  OE1       23.3210   55.1370  -49.5690 O.co2  84  GLU84      -0.2457
     45  OE2       25.2600   55.1550  -48.5450 O.co2  84  GLU84      -0.2457
     46  N         20.4650   59.8760  -48.9480 N.am   85  TRP85      -0.1976
     47  CA        19.7310   60.7580  -49.8480 C.3    85  TRP85       0.1640
     48  C         19.8250   62.2190  -49.4130 C.2    85  TRP85       0.2290
     49  O         19.9900   63.1160  -50.2450 O.2    85  TRP85      -0.2864
     50  CB        18.2760   60.3040  -49.9510 C.3    85  TRP85       0.0576
     51  CG        18.1550   58.8820  -50.4230 C.ar   85  TRP85       0.0006
     52  CD1       17.8500   57.7870  -49.6610 C.ar   85  TRP85       0.0946
     53  CD2       18.3730   58.3940  -51.7540 C.ar   85  TRP85       0.0152
     54  NE1       17.8690   56.6530  -50.4320 N.ar   85  TRP85      -0.2442
     55  CE2       18.1860   56.9940  -51.7200 C.ar   85  TRP85       0.0810
     56  CE3       18.7110   59.0070  -52.9690 C.ar   85  TRP85       0.0012
     57  CZ2       18.3230   56.1900  -52.8610 C.ar   85  TRP85       0.0191
     58  CZ3       18.8480   58.2060  -54.1040 C.ar   85  TRP85       0.0001
     59  CH2       18.6550   56.8120  -54.0390 C.ar   85  TRP85       0.0015
     60  N         23.7120   63.3640  -49.4100 N.3    88  GLU88      -0.1245
     61  CA        24.1580   63.6180  -50.7710 C.3    88  GLU88       0.1567
     62  C         23.9990   65.0870  -51.1490 C.2    88  GLU88       0.2260
     63  O         24.9040   65.6930  -51.7210 O.2    88  GLU88      -0.2867
     64  CB        23.3710   62.7390  -51.7420 C.3    88  GLU88       0.0388
     65  CG        23.8510   62.7920  -53.1760 C.3    88  GLU88       0.1160
     66  CD        23.2290   61.7050  -54.0240 C.2    88  GLU88       0.3649
     67  OE1       23.3630   60.5180  -53.6540 O.co2  88  GLU88      -0.2457
     68  OE2       22.6120   62.0360  -55.0570 O.co2  88  GLU88      -0.2457
     69  N         27.0280   68.4110  -51.7520 N.3    92  LYS92      -0.1245
     70  CA        26.9640   69.1920  -52.9830 C.3    92  LYS92       0.1561
     71  C         26.7150   70.6760  -52.7280 C.2    92  LYS92       0.2260
     72  O         27.1540   71.5280  -53.5010 O.2    92  LYS92      -0.2867
     73  CB        25.8780   68.6570  -53.9210 C.3    92  LYS92       0.0271
     74  CG        26.3730   67.6880  -54.9850 C.3    92  LYS92       0.0035
     75  CD        26.2180   66.2400  -54.5570 C.3    92  LYS92       0.0206
     76  CE        26.5520   65.2940  -55.7000 C.3    92  LYS92       0.1093
     77  NZ        26.1210   63.8990  -55.4150 N.3    92  LYS92      -0.1314
     78  N         29.9660   60.4630  -55.4540 N.3   103  ASP103     -0.1225
     79  CA        29.3030   59.1530  -55.4160 C.3   103  ASP103      0.1805
     80  C         29.8890   58.1780  -54.3930 C.2   103  ASP103      0.2598
     81  O         30.1420   57.0040  -54.6760 O.2   103  ASP103     -0.2718
     82  CB        29.1560   58.5280  -56.8240 C.3   103  ASP103      0.1424
     83  CG        30.4780   58.0740  -57.4460 C.2   103  ASP103      0.3668
     84  OD1       31.5640   58.4480  -56.9690 O.co2 103  ASP103     -0.2456
     85  OD2       30.4150   57.3300  -58.4480 O.co2 103  ASP103     -0.2456
     86  N         30.0710   58.7070  -53.1870 N.am  104  PHE104     -0.1962
     87  CA        30.6220   57.9970  -52.0380 C.3   104  PHE104      0.1771
     88  C         30.2330   56.5300  -51.8830 C.2   104  PHE104      0.2620
     89  O         31.0700   55.6990  -51.5270 O.2   104  PHE104     -0.2715
     90  CB        30.2650   58.7570  -50.7540 C.3   104  PHE104      0.0574
     91  CG        28.8550   59.2970  -50.7340 C.ar  104  PHE104     -0.0200
     92  CD1       27.7620   58.4390  -50.6340 C.ar  104  PHE104     -0.0042
     93  CD2       28.6210   60.6640  -50.8250 C.ar  104  PHE104     -0.0042
     94  CE1       26.4630   58.9360  -50.6260 C.ar  104  PHE104     -0.0003
     95  CE2       27.3270   61.1700  -50.8180 C.ar  104  PHE104     -0.0003
     96  CZ        26.2460   60.3030  -50.7180 C.ar  104  PHE104     -0.0000
     97  N         28.9740   56.2150  -52.1640 N.am  105  GLY105     -0.1940
     98  CA        28.4880   54.8550  -52.0320 C.3   105  GLY105      0.2014
     99  C         29.4020   53.7960  -52.6150 C.2   105  GLY105      0.2638
    100  O         29.6600   52.7770  -51.9740 O.2   105  GLY105     -0.2714
    101  N         29.9170   54.0530  -53.8140 N.am  106  HIS106     -0.1973
    102  CA        30.8000   53.1110  -54.4910 C.3   106  HIS106      0.1656
    103  C         32.1820   53.0280  -53.8430 C.2   106  HIS106      0.2291
    104  O         32.6890   51.9340  -53.5900 O.2   106  HIS106     -0.2864
    105  CB        30.9350   53.4830  -55.9700 C.3   106  HIS106      0.0771
    106  CG        31.3860   52.3530  -56.8440 C.ar  106  HIS106      0.0820
    107  ND1       30.5130   51.4290  -57.3770 N.ar  106  HIS106     -0.2267
    108  CD2       32.6170   52.0060  -57.2880 C.ar  106  HIS106      0.1154
    109  CE1       31.1860   50.5640  -58.1150 C.ar  106  HIS106      0.1986
    110  NE2       32.4640   50.8930  -58.0780 N.ar  106  HIS106     -0.2212
    111  N         15.6920   61.8960  -57.7780 N.3   194  ALA194     -0.1231
    112  CA        16.8740   61.0620  -57.6290 C.3   194  ALA194      0.1694
    113  C         16.3820   59.6280  -57.7420 C.2   194  ALA194      0.2591
    114  O         16.7270   58.9170  -58.6820 O.2   194  ALA194     -0.2718
    115  CB        17.5290   61.2960  -56.2730 C.3   194  ALA194      0.0304
    116  N         15.5440   59.2220  -56.7920 N.am  195  LEU195     -0.1980
    117  CA        14.9850   57.8800  -56.8030 C.3   195  LEU195      0.1596
    118  C         13.4640   57.9090  -56.8830 C.2   195  LEU195      0.2287
    119  O         12.7800   58.1370  -55.8760 O.2   195  LEU195     -0.2864
    120  CB        15.4110   57.0870  -55.5660 C.3   195  LEU195      0.0297
    121  CG        14.8510   55.6600  -55.5120 C.3   195  LEU195      0.0022
    122  CD1       15.4780   54.8030  -56.5990 C.3   195  LEU195      0.0001
    123  CD2       15.1010   55.0570  -54.1430 C.3   195  LEU195      0.0001
    124  N         25.6410   45.6420  -50.1650 N.3   314  VAL314     -0.1231
    125  CA        24.6150   46.4540  -50.8070 C.3   314  VAL314      0.1692
    126  C         25.0960   46.7670  -52.2220 C.2   314  VAL314      0.2592
    127  O         26.2580   47.1200  -52.4280 O.2   314  VAL314     -0.2718
    128  CB        24.3610   47.7620  -50.0240 C.3   314  VAL314      0.0266
    129  CG1       23.3100   48.6090  -50.7270 C.3   314  VAL314      0.0020
    130  CG2       23.9180   47.4410  -48.6030 C.3   314  VAL314      0.0020
    131  N         24.2010   46.6270  -53.1930 N.am  315  ALA315     -0.1966
    132  CA        24.5420   46.8590  -54.5930 C.3   315  ALA315      0.1728
    133  C         24.6920   48.3170  -55.0050 C.2   315  ALA315      0.2616
    134  O         23.7700   49.1210  -54.8340 O.2   315  ALA315     -0.2715
    135  CB        23.5400   46.1730  -55.4890 C.3   315  ALA315      0.0334
    136  N         25.8630   48.6310  -55.5550 N.am  316  VAL316     -0.1977
    137  CA        26.2130   49.9630  -56.0460 C.3   316  VAL316      0.1596
    138  C         27.2190   49.8190  -57.1970 C.2   316  VAL316      0.2287
    139  O         27.5700   50.8430  -57.8200 O.2   316  VAL316     -0.2864
    140  CB        26.8470   50.8550  -54.9420 C.3   316  VAL316      0.0276
    141  CG1       25.8080   51.2470  -53.9070 C.3   316  VAL316      0.0022
    142  CG2       28.0190   50.1440  -54.2830 C.3   316  VAL316      0.0022
@<TRIPOS>BOND
     1    11     9    1
     2    27    25   ar
     3    27    28   ar
     4     9    10    1
     5     9     8    2
     6     1     2    1
     7    25    24   ar
     8    28    26   ar
     9     2     5    1
    10     2     3    1
    11     6     5    1
    12     6     7    1
    13     8     7    1
    14     4     3    2
    15     3    12   am
    16    24    26   ar
    17    24    23    1
    18    15    14    2
    19    22    21    2
    20    20    21    1
    21    20    23    1
    22    20    19    1
    23    12    13    1
    24    14    19   am
    25    14    13    1
    26    13    16    1
    27    17    16    1
    28    16    18    1
    29   114   113    2
    30    85    83   ar
    31   109   110   ar
    32   109   107   ar
    33   110   108   ar
    34   139   138    2
    35   111   112    1
    36   113   112    1
    37   113   116   am
    38   112   115    1
    39    83    84   ar
    40    83    82    1
    41   107   106   ar
    42   108   106   ar
    43   138   137    1
    44   118   117    1
    45   118   119    2
    46   106   105    1
    47    82    79    1
    48   117   116    1
    49   117   120    1
    50   122   121    1
    51   137   136    1
    52   137   140    1
    53   105   102    1
    54    76    77    1
    55    76    75    1
    56   120   121    1
    57   136   133   am
    58   121   123    1
    59   135   132    1
    60    78    79    1
    61    79    80    1
    62    68    66   ar
    63   133   134    2
    64   133   132    1
    65    74    75    1
    66    74    73    1
    67   140   142    1
    68   140   141    1
    69    81    80    2
    70   132   131    1
    71   102   103    1
    72   102   101    1
    73    80    86   am
    74    58    59   ar
    75    58    56   ar
    76    59    57   ar
    77    66    67   ar
    78    66    65    1
    79    73    70    1
    80   103   104    2
    81   101    99   am
    82    72    71    2
    83   131   126   am
    84    86    87    1
    85    65    64    1
    86    70    71    1
    87    70    69    1
    88    56    53   ar
    89    57    55   ar
    90    99    98    1
    91    99   100    2
    92   127   126    2
    93   126   125    1
    94    97    98    1
    95    97    88   am
    96    87    88    1
    97    87    90    1
    98    88    89    2
    99    53    55   ar
   100    53    51   ar
   101    64    61    1
   102    63    62    2
   103    55    54   ar
   104    62    61    1
   105    93    95   ar
   106    93    91   ar
   107    95    96   ar
   108   125   124    1
   109   125   128    1
   110    61    60    1
   111    90    91    1
   112    91    92   ar
   113   129   128    1
   114    96    94   ar
   115    92    94   ar
   116    54    52   ar
   117    51    50    1
   118    51    52   ar
   119    49    48    2
   120   128   130    1
   121    50    47    1
   122    47    48    1
   123    47    46    1
   124    44    43   ar
   125    40    39    2
   126    46    39   am
   127    39    38    1
   128    43    45   ar
   129    43    42    1
   130    41    42    1
   131    41    38    1
   132    38    37    1
   133    32    31    2
   134    35    33    1
   135    31    30    1
   136    33    30    1
   137    33    34    1
   138    30    29    1
   139    34    36    1
