@<TRIPOS>MOLECULE
tmp/1tsmA00.pdb
 151 147 0 0 0
SMALL
GASTEIGER

@<TRIPOS>ATOM
      1  N         21.7370   50.0280  -64.0080 N.3    23  ARG23      -0.1231
      2  CA        22.1350   51.3570  -63.5490 C.3    23  ARG23       0.1694
      3  C         23.4840   51.3520  -62.8340 C.2    23  ARG23       0.2592
      4  O         24.2820   52.2740  -62.9810 O.2    23  ARG23      -0.2718
      5  CB        21.0420   51.8850  -62.5940 C.3    23  ARG23       0.0321
      6  CG        21.5220   52.3840  -61.2340 C.3    23  ARG23       0.0489
      7  CD        20.3730   52.7750  -60.3330 C.3    23  ARG23       0.2205
      8  NE        20.8080   53.7100  -59.2950 N.pl3  23  ARG23      -0.0865
      9  CZ        20.0700   54.7190  -58.8370 C.cat  23  ARG23       0.5346
     10  NH1       18.8360   54.9110  -59.2810 N.pl3  23  ARG23       0.1354
     11  NH2       20.5460   55.5200  -57.9010 N.pl3  23  ARG23       0.1354
     12  N         23.6790   50.3530  -61.9830 N.am   24  THR24      -0.1953
     13  CA        24.8970   50.2110  -61.2030 C.3    24  THR24       0.1897
     14  C         25.8220   49.2120  -61.8680 C.2    24  THR24       0.2313
     15  O         25.4500   48.5020  -62.8060 O.2    24  THR24      -0.2863
     16  CB        24.5820   49.7210  -59.7490 C.3    24  THR24       0.1794
     17  OG1       23.4650   48.8310  -59.7730 O.3    24  THR24      -0.2208
     18  CG2       24.3330   50.8900  -58.8100 C.3    24  THR24       0.0378
     19  N         17.8050   54.5640  -42.8370 N.3    81  ILE81      -0.1231
     20  CA        17.4760   54.1420  -44.1930 C.3    81  ILE81       0.1692
     21  C         17.4780   55.2330  -45.2770 C.2    81  ILE81       0.2592
     22  O         17.7210   54.9380  -46.4600 O.2    81  ILE81      -0.2718
     23  CB        16.1440   53.3440  -44.1890 C.3    81  ILE81       0.0266
     24  CG1       16.3390   52.0460  -43.4030 C.3    81  ILE81       0.0019
     25  CG2       15.7050   52.9820  -45.5970 C.3    81  ILE81       0.0020
     26  CD1       15.0620   51.2700  -43.2120 C.3    81  ILE81       0.0001
     27  N         17.2400   56.4850  -44.8920 N.am   82  TRP82      -0.1976
     28  CA        17.2210   57.5550  -45.8890 C.3    82  TRP82       0.1640
     29  C         18.3640   58.5600  -45.8280 C.2    82  TRP82       0.2290
     30  O         18.4070   59.4930  -46.6020 O.2    82  TRP82      -0.2864
     31  CB        15.8820   58.2830  -45.8550 C.3    82  TRP82       0.0576
     32  CG        14.7350   57.4090  -46.2130 C.ar   82  TRP82       0.0006
     33  CD1       14.1620   56.4620  -45.4260 C.ar   82  TRP82       0.0946
     34  CD2       14.0450   57.3970  -47.4610 C.ar   82  TRP82       0.0152
     35  NE1       13.1480   55.8380  -46.1100 N.ar   82  TRP82      -0.2442
     36  CE2       13.0500   56.3830  -47.3710 C.ar   82  TRP82       0.0810
     37  CE3       14.1450   58.1020  -48.6510 C.ar   82  TRP82       0.0012
     38  CZ2       12.1750   56.0890  -48.4070 C.ar   82  TRP82       0.0191
     39  CZ3       13.2780   57.8170  -49.6850 C.ar   82  TRP82       0.0001
     40  CH2       12.3070   56.8110  -49.5560 C.ar   82  TRP82       0.0015
     41  N         21.5100   58.7310  -46.8580 N.3    84  GLU84      -0.1231
     42  CA        22.2100   58.9730  -48.1130 C.3    84  GLU84       0.1699
     43  C         21.5290   59.9650  -49.0530 C.2    84  GLU84       0.2592
     44  O         22.2070   60.7470  -49.7170 O.2    84  GLU84      -0.2718
     45  CB        22.4630   57.6400  -48.8230 C.3    84  GLU84       0.0402
     46  CG        22.8940   56.5070  -47.8960 C.3    84  GLU84       0.1161
     47  CD        24.0130   55.6460  -48.4650 C.2    84  GLU84       0.3649
     48  OE1       23.9400   55.2520  -49.6500 O.co2  84  GLU84      -0.2457
     49  OE2       24.9690   55.3540  -47.7130 O.co2  84  GLU84      -0.2457
     50  N         20.1960   59.9480  -49.0830 N.am   85  TRP85      -0.1976
     51  CA        19.4070   60.8450  -49.9360 C.3    85  TRP85       0.1640
     52  C         19.6480   62.3070  -49.5290 C.2    85  TRP85       0.2290
     53  O         19.8240   63.1800  -50.3660 O.2    85  TRP85      -0.2864
     54  CB        17.9060   60.4790  -49.8410 C.3    85  TRP85       0.0576
     55  CG        16.9670   61.3130  -50.7120 C.ar   85  TRP85       0.0006
     56  CD1       16.9410   62.6770  -50.8190 C.ar   85  TRP85       0.0946
     57  CD2       15.9670   60.8160  -51.6340 C.ar   85  TRP85       0.0152
     58  NE1       16.0060   63.0610  -51.7530 N.ar   85  TRP85      -0.2442
     59  CE2       15.3960   61.9580  -52.2680 C.ar   85  TRP85       0.0810
     60  CE3       15.5030   59.5500  -51.9930 C.ar   85  TRP85       0.0012
     61  CZ2       14.3890   61.8430  -53.2380 C.ar   85  TRP85       0.0191
     62  CZ3       14.5090   59.4450  -52.9550 C.ar   85  TRP85       0.0001
     63  CH2       13.9630   60.5860  -53.5650 C.ar   85  TRP85       0.0015
     64  N         23.7010   63.3930  -49.3380 N.3    88  GLU88      -0.1245
     65  CA        24.1280   63.6170  -50.7060 C.3    88  GLU88       0.1567
     66  C         24.0490   65.0970  -51.0320 C.2    88  GLU88       0.2260
     67  O         25.0310   65.7120  -51.4560 O.2    88  GLU88      -0.2867
     68  CB        23.2320   62.8210  -51.6540 C.3    88  GLU88       0.0388
     69  CG        23.6420   62.8710  -53.1140 C.3    88  GLU88       0.1160
     70  CD        23.1400   61.6680  -53.8890 C.2    88  GLU88       0.3649
     71  OE1       23.4100   60.5280  -53.4500 O.co2  88  GLU88      -0.2457
     72  OE2       22.4880   61.8480  -54.9380 O.co2  88  GLU88      -0.2457
     73  N         29.9840   58.7150  -53.4440 N.3   104  PHE104     -0.1227
     74  CA        30.4940   58.0400  -52.2560 C.3   104  PHE104      0.1736
     75  C         30.1580   56.5880  -51.9410 C.2   104  PHE104      0.2596
     76  O         31.0690   55.7940  -51.6870 O.2   104  PHE104     -0.2718
     77  CB        30.1940   58.9050  -51.0240 C.3   104  PHE104      0.0547
     78  CG        28.7740   59.4450  -50.9740 C.ar  104  PHE104     -0.0202
     79  CD1       27.6680   58.6050  -51.1150 C.ar  104  PHE104     -0.0042
     80  CD2       28.5470   60.7990  -50.7450 C.ar  104  PHE104     -0.0042
     81  CE1       26.3710   59.0990  -51.0280 C.ar  104  PHE104     -0.0003
     82  CE2       27.2510   61.3040  -50.6570 C.ar  104  PHE104     -0.0003
     83  CZ        26.1630   60.4510  -50.7960 C.ar  104  PHE104     -0.0000
     84  N         28.8750   56.2320  -51.9660 N.am  105  GLY105     -0.1957
     85  CA        28.4660   54.8750  -51.6460 C.3   105  GLY105      0.1869
     86  C         29.2970   53.8010  -52.3080 C.2   105  GLY105      0.2309
     87  O         29.5150   52.7380  -51.7340 O.2   105  GLY105     -0.2863
     88  N         15.6560   61.7130  -57.7350 N.3   194  ALA194     -0.1231
     89  CA        16.7960   60.8420  -57.4540 C.3   194  ALA194      0.1694
     90  C         16.1990   59.4300  -57.5280 C.2   194  ALA194      0.2591
     91  O         16.4450   58.6920  -58.4650 O.2   194  ALA194     -0.2718
     92  CB        17.3430   61.1300  -56.0490 C.3   194  ALA194      0.0304
     93  N         15.4200   59.0530  -56.5190 N.am  195  LEU195     -0.1980
     94  CA        14.7750   57.7500  -56.5600 C.3   195  LEU195      0.1596
     95  C         13.2700   57.8830  -56.7310 C.2   195  LEU195      0.2287
     96  O         12.5560   58.1480  -55.7640 O.2   195  LEU195     -0.2864
     97  CB        15.0410   56.8860  -55.3250 C.3   195  LEU195      0.0297
     98  CG        14.4070   55.5180  -55.6250 C.3   195  LEU195      0.0022
     99  CD1       15.2550   54.7960  -56.6470 C.3   195  LEU195      0.0001
    100  CD2       14.2190   54.6620  -54.4040 C.3   195  LEU195      0.0001
    101  N         14.0130   44.3610  -55.1690 N.3   221  ASP221     -0.1239
    102  CA        15.3280   43.8200  -54.8890 C.3   221  ASP221      0.1674
    103  C         15.0960   42.6440  -53.9600 C.2   221  ASP221      0.2266
    104  O         15.2150   42.7630  -52.7490 O.2   221  ASP221     -0.2867
    105  CB        16.1900   44.8900  -54.2320 C.3   221  ASP221      0.1410
    106  CG        17.6580   44.5060  -54.1330 C.2   221  ASP221      0.3668
    107  OD1       18.0520   43.4190  -54.6160 O.co2 221  ASP221     -0.2456
    108  OD2       18.4040   45.3270  -53.5590 O.co2 221  ASP221     -0.2456
    109  N         17.6840   41.8950  -50.4170 N.3   224  LEU224     -0.1231
    110  CA        17.6370   42.9320  -49.3930 C.3   224  LEU224      0.1693
    111  C         16.2920   43.6620  -49.2320 C.2   224  LEU224      0.2592
    112  O         15.7140   43.6650  -48.1600 O.2   224  LEU224     -0.2718
    113  CB        18.7670   43.9480  -49.6470 C.3   224  LEU224      0.0284
    114  CG        20.2060   43.4220  -49.7630 C.3   224  LEU224      0.0019
    115  CD1       21.1500   44.5450  -50.1470 C.3   224  LEU224      0.0001
    116  CD2       20.6370   42.7820  -48.4500 C.3   224  LEU224      0.0001
    117  N         15.7900   44.2430  -50.3180 N.am  225  GLY225     -0.1957
    118  CA        14.5550   45.0140  -50.2850 C.3   225  GLY225      0.1869
    119  C         13.2010   44.3730  -50.0300 C.2   225  GLY225      0.2309
    120  O         12.4860   44.7790  -49.1370 O.2   225  GLY225     -0.2863
    121  N         20.4990   41.0280  -57.3580 N.3   261  TYR261     -0.1241
    122  CA        21.8170   41.5050  -57.7340 C.3   261  TYR261      0.1605
    123  C         22.7630   40.3380  -57.6230 C.2   261  TYR261      0.2264
    124  O         22.8090   39.6360  -56.6220 O.2   261  TYR261     -0.2867
    125  CB        22.2740   42.6850  -56.8850 C.3   261  TYR261      0.0534
    126  CG        21.7050   44.0150  -57.3360 C.ar  261  TYR261     -0.0201
    127  CD1       20.4870   44.4710  -56.8450 C.ar  261  TYR261     -0.0009
    128  CD2       22.3640   44.7940  -58.2900 C.ar  261  TYR261     -0.0009
    129  CE1       19.9470   45.6800  -57.2580 C.ar  261  TYR261      0.0417
    130  CE2       21.8290   46.0080  -58.7220 C.ar  261  TYR261      0.0417
    131  CZ        20.6080   46.4340  -58.2150 C.ar  261  TYR261      0.1957
    132  OH        20.0200   47.5960  -58.6680 O.3   261  TYR261     -0.2866
    133  N         25.6580   45.6020  -50.1460 N.3   314  VAL314     -0.1231
    134  CA        24.6630   46.4280  -50.8250 C.3   314  VAL314      0.1692
    135  C         25.0970   46.6060  -52.2830 C.2   314  VAL314      0.2592
    136  O         26.2860   46.5950  -52.5940 O.2   314  VAL314     -0.2718
    137  CB        24.4820   47.8090  -50.0830 C.3   314  VAL314      0.0266
    138  CG1       24.1060   48.9320  -51.0600 C.3   314  VAL314      0.0020
    139  CG2       23.3930   47.6730  -49.0300 C.3   314  VAL314      0.0020
    140  N         24.1260   46.6810  -53.1820 N.am  315  ALA315     -0.1966
    141  CA        24.4180   46.8340  -54.5950 C.3   315  ALA315      0.1728
    142  C         24.5710   48.2930  -54.9920 C.2   315  ALA315      0.2616
    143  O         23.6910   49.1150  -54.7090 O.2   315  ALA315     -0.2715
    144  CB        23.3310   46.1780  -55.4200 C.3   315  ALA315      0.0334
    145  N         25.7050   48.6030  -55.6210 N.am  316  VAL316     -0.1977
    146  CA        26.0300   49.9490  -56.0930 C.3   316  VAL316      0.1596
    147  C         26.9980   49.8490  -57.2710 C.2   316  VAL316      0.2287
    148  O         27.5690   50.8860  -57.6810 O.2   316  VAL316     -0.2864
    149  CB        26.6840   50.8270  -54.9930 C.3   316  VAL316      0.0276
    150  CG1       25.6900   51.1560  -53.8950 C.3   316  VAL316      0.0022
    151  CG2       27.9050   50.1340  -54.4230 C.3   316  VAL316      0.0022
@<TRIPOS>BOND
     1     1     2    1
     2     2     3    1
     3     2     5    1
     4     4     3    2
     5     3    12   am
     6    15    14    2
     7     5     6    1
     8    12    13    1
     9    14    13    1
    10     6     7    1
    11    13    16    1
    12     7     8    1
    13    17    16    1
    14    16    18    1
    15     8     9    2
    16    10     9    1
    17     9    11    1
    18   130   128   ar
    19   130   131   ar
    20   132   131    1
    21    91    90    2
    22   128   126   ar
    23   131   129   ar
    24    88    89    1
    25   122   123    1
    26   122   121    1
    27   122   125    1
    28   148   147    2
    29   123   124    2
    30    90    89    1
    31    90    93   am
    32    89    92    1
    33   126   125    1
    34   126   127   ar
    35   147   146    1
    36   129   127   ar
    37    95    94    1
    38    95    96    2
    39    99    98    1
    40    94    93    1
    41    94    97    1
    42   146   145    1
    43   146   149    1
    44    98    97    1
    45    98   100    1
    46   145   142   am
    47   144   141    1
    48   101   102    1
    49   149   151    1
    50   149   150    1
    51   142   143    2
    52   142   141    1
    53    72    70   ar
    54   102   105    1
    55   102   103    1
    56   107   106   ar
    57   141   140    1
    58   105   106    1
    59   106   108   ar
    60   103   104    2
    61    70    71   ar
    62    70    69    1
    63    63    61   ar
    64    63    62   ar
    65    73    74    1
    66    61    59   ar
    67   140   135   am
    68    69    68    1
    69    62    60   ar
    70   136   135    2
    71    86    87    2
    72    86    85    1
    73   135   134    1
    74    59    58   ar
    75    59    57   ar
    76    74    75    1
    77    74    77    1
    78    60    57   ar
    79    84    75   am
    80    84    85    1
    81    75    76    2
    82    58    56   ar
    83    68    65    1
    84    57    55   ar
    85    67    66    2
    86    79    81   ar
    87    79    78   ar
    88   138   137    1
    89    66    65    1
    90    81    83   ar
    91    77    78    1
    92    78    80   ar
    93   134   133    1
    94   134   137    1
    95    56    55   ar
    96    83    82   ar
    97    80    82   ar
    98    55    54    1
    99    65    64    1
   100   109   110    1
   101    53    52    2
   102   117   118    1
   103   117   111   am
   104   118   119    1
   105   115   114    1
   106   137   139    1
   107   119   120    2
   108    51    54    1
   109    51    52    1
   110    51    50    1
   111   114   113    1
   112   114   116    1
   113    44    43    2
   114    39    40   ar
   115    39    37   ar
   116    48    47   ar
   117   113   110    1
   118    40    38   ar
   119   110   111    1
   120   111   112    2
   121    50    43   am
   122    43    42    1
   123    45    42    1
   124    45    46    1
   125    37    34   ar
   126    47    46    1
   127    47    49   ar
   128    38    36   ar
   129    42    41    1
   130    34    36   ar
   131    34    32   ar
   132    36    35   ar
   133    30    29    2
   134    22    21    2
   135    32    31    1
   136    32    33   ar
   137    35    33   ar
   138    28    31    1
   139    28    29    1
   140    28    27    1
   141    25    23    1
   142    21    27   am
   143    21    20    1
   144    20    23    1
   145    20    19    1
   146    23    24    1
   147    24    26    1
