@<TRIPOS>MOLECULE
tmp/1tsqB00.pdb
 156 147 0 0 0
SMALL
GASTEIGER

@<TRIPOS>ATOM
      1  N          3.6710   -5.6230   27.4050 N.3     8  ARG8       -0.1245
      2  CA         3.0260   -4.8720   26.3380 C.3     8  ARG8        0.1563
      3  C          1.9430   -3.9850   26.9590 C.2     8  ARG8        0.2260
      4  O          1.1800   -4.4320   27.8170 O.2     8  ARG8       -0.2867
      5  CB         2.4110   -5.8320   25.3180 C.3     8  ARG8        0.0307
      6  CG         3.4410   -6.5000   24.4150 C.3     8  ARG8        0.0489
      7  CD         2.8360   -7.6440   23.6140 C.3     8  ARG8        0.2205
      8  NE         3.7660   -8.1470   22.6050 N.pl3   8  ARG8       -0.0865
      9  CZ         3.5920   -9.2720   21.9170 C.cat   8  ARG8        0.5346
     10  NH1        2.5180  -10.0210   22.1270 N.pl3   8  ARG8        0.1354
     11  NH2        4.4940   -9.6510   21.0210 N.pl3   8  ARG8        0.1354
     12  N         -3.2540   -2.3550   21.7300 N.3    23  LEU23      -0.1245
     13  CA        -1.9240   -1.9590   22.1850 C.3    23  LEU23       0.1561
     14  C         -1.6520   -0.4680   21.9700 C.2    23  LEU23       0.2260
     15  O         -1.8000    0.0330   20.8550 O.2    23  LEU23      -0.2867
     16  CB        -0.8750   -2.7780   21.4230 C.3    23  LEU23       0.0270
     17  CG         0.6120   -2.5230   21.6880 C.3    23  LEU23       0.0019
     18  CD1        1.0120   -3.1620   23.0130 C.3    23  LEU23       0.0001
     19  CD2        1.4370   -3.1240   20.5530 C.3    23  LEU23       0.0001
     20  N          0.3990    2.1020   20.9600 N.3    25  ASN25      -0.1240
     21  CA         1.5930    2.0930   20.1190 C.3    25  ASN25       0.1653
     22  C          2.0880    3.4670   19.6580 C.2    25  ASN25       0.2266
     23  O          1.5460    4.0380   18.7160 O.2    25  ASN25      -0.2867
     24  CB         1.2780    1.2290   18.8990 C.3    25  ASN25       0.1155
     25  CG         2.4960    0.8700   18.0920 C.2    25  ASN25       0.2627
     26  OD1        3.5390    1.5090   18.1860 O.2    25  ASN25      -0.2716
     27  ND2        2.3590   -0.1610   17.2750 N.am   25  ASN25      -0.0877
     28  N          4.7100    4.0100   18.1240 N.3    27  GLY27      -0.1210
     29  CA         5.4300    3.8270   16.8730 C.3    27  GLY27       0.1956
     30  C          4.5120    3.6780   15.6630 C.2    27  GLY27       0.2612
     31  O          4.9580    3.3460   14.5610 O.2    27  GLY27      -0.2717
     32  N          3.2220    3.9170   15.8660 N.am   28  ALA28      -0.1965
     33  CA         2.2430    3.8280   14.7830 C.3    28  ALA28       0.1728
     34  C          1.5830    5.1910   14.5590 C.2    28  ALA28       0.2616
     35  O          1.0830    5.8070   15.5030 O.2    28  ALA28      -0.2715
     36  CB         1.1790    2.7800   15.1220 C.3    28  ALA28       0.0334
     37  N          1.5890    5.6740   13.3210 N.am   29  ASP29      -0.1957
     38  CA         0.9630    6.9630   13.0270 C.3    29  ASP29       0.1840
     39  C         -0.5520    6.8350   13.1290 C.2    29  ASP29       0.2622
     40  O         -1.2390    7.7730   13.5330 O.2    29  ASP29      -0.2715
     41  CB         1.2900    7.4470   11.6100 C.3    29  ASP29       0.1450
     42  CG         2.7560    7.7560   11.4120 C.2    29  ASP29       0.3671
     43  OD1        3.4450    8.0780   12.3960 O.co2  29  ASP29      -0.2456
     44  OD2        3.2140    7.6950   10.2560 O.co2  29  ASP29      -0.2456
     45  N         -1.0600    5.6640   12.7600 N.am   30  ASP30      -0.1971
     46  CA        -2.4930    5.4090   12.7670 C.3    30  ASP30       0.1709
     47  C         -2.9150    4.2370   13.6370 C.2    30  ASP30       0.2293
     48  O         -2.0900    3.5000   14.1780 O.2    30  ASP30      -0.2864
     49  CB        -2.9710    5.1560   11.3390 C.3    30  ASP30       0.1436
     50  CG        -2.5380    6.2430   10.3810 C.2    30  ASP30       0.3671
     51  OD1       -3.0270    7.3810   10.5190 O.co2  30  ASP30      -0.2456
     52  OD2       -1.7000    5.9590    9.4960 O.co2  30  ASP30      -0.2456
     53  N         -4.9500    0.6760   13.8290 N.3    32  VAL32      -0.1245
     54  CA        -5.3670   -0.4360   12.9770 C.3    32  VAL32       0.1561
     55  C         -5.8630   -1.5880   13.8330 C.2    32  VAL32       0.2260
     56  O         -5.1710   -2.0350   14.7480 O.2    32  VAL32      -0.2867
     57  CB        -4.2060   -0.9810   12.0980 C.3    32  VAL32       0.0252
     58  CG1       -4.7720   -1.8270   10.9710 C.3    32  VAL32       0.0019
     59  CG2       -3.3870    0.1550   11.5380 C.3    32  VAL32       0.0019
     60  N         -7.4420    1.4640    1.6090 N.3    45  LYS45      -0.1231
     61  CA        -6.1910    2.1470    1.8890 C.3    45  LYS45       0.1693
     62  C         -5.0530    1.1570    2.0740 C.2    45  LYS45       0.2592
     63  O         -5.2510   -0.0530    2.0570 O.2    45  LYS45      -0.2718
     64  CB        -6.3350    3.0020    3.1420 C.3    45  LYS45       0.0285
     65  CG        -7.0480    4.3320    2.9310 C.3    45  LYS45       0.0035
     66  CD        -6.2690    5.2860    2.0370 C.3    45  LYS45       0.0206
     67  CE        -7.0270    6.5990    1.8710 C.3    45  LYS45       0.1093
     68  NZ        -6.3740    7.5680    0.9430 N.3    45  LYS45      -0.1314
     69  N         -3.8510    1.6870    2.2350 N.am   46  MET46      -0.1965
     70  CA        -2.6800    0.8610    2.4630 C.3    46  MET46       0.1736
     71  C         -1.8140    1.5510    3.5020 C.2    46  MET46       0.2616
     72  O         -1.7790    2.7780    3.5620 O.2    46  MET46      -0.2715
     73  CB        -1.8870    0.6680    1.1650 C.3    46  MET46       0.0427
     74  CG        -2.5580   -0.2660    0.1480 C.3    46  MET46       0.0599
     75  SD        -1.5440   -0.5870   -1.3290 S.3    46  MET46      -0.1393
     76  CE        -0.3270   -1.7650   -0.6780 C.3    46  MET46       0.0692
     77  N         -1.1380    0.7610    4.3300 N.am   47  ILE47      -0.1963
     78  CA        -0.2440    1.2870    5.3610 C.3    47  ILE47       0.1727
     79  C          0.9260    0.3320    5.4950 C.2    47  ILE47       0.2617
     80  O          0.7780   -0.8750    5.3150 O.2    47  ILE47      -0.2715
     81  CB        -0.9400    1.4060    6.7310 C.3    47  ILE47       0.0290
     82  CG1       -1.6240    0.0850    7.0780 C.3    47  ILE47       0.0022
     83  CG2       -1.9400    2.5580    6.7120 C.3    47  ILE47       0.0023
     84  CD1       -2.2440    0.0580    8.4630 C.3    47  ILE47       0.0001
     85  N          2.0940    0.8700    5.8180 N.am   48  GLY48      -0.1940
     86  CA         3.2600    0.0210    5.9270 C.3    48  GLY48       0.2014
     87  C          3.9210   -0.0220    7.2840 C.2    48  GLY48       0.2639
     88  O          3.7510    0.8680    8.1190 O.2    48  GLY48      -0.2714
     89  N          4.6870   -1.0820    7.4930 N.am   49  GLY49      -0.1939
     90  CA         5.3940   -1.2510    8.7440 C.3    49  GLY49       0.2014
     91  C          6.7300   -1.9020    8.4720 C.2    49  GLY49       0.2638
     92  O          7.2930   -1.7410    7.3900 O.2    49  GLY49      -0.2714
     93  N          7.2380   -2.6470    9.4450 N.am   50  ILE50      -0.1977
     94  CA         8.5170   -3.3120    9.2810 C.3    50  ILE50       0.1596
     95  C          8.5230   -4.3330    8.1500 C.2    50  ILE50       0.2287
     96  O          9.4880   -4.4050    7.3880 O.2    50  ILE50      -0.2864
     97  CB         8.9640   -3.9880   10.5980 C.3    50  ILE50       0.0276
     98  CG1        9.8840   -3.0350   11.3650 C.3    50  ILE50       0.0022
     99  CG2        9.6570   -5.3230   10.3140 C.3    50  ILE50       0.0022
    100  CD1       10.5240   -3.6500   12.5910 C.3    50  ILE50       0.0001
    101  N          3.8940   -3.2600    3.3340 N.3    53  PHE53      -0.1227
    102  CA         2.5300   -2.7360    3.3980 C.3    53  PHE53       0.1736
    103  C          1.4240   -3.7850    3.4030 C.2    53  PHE53       0.2595
    104  O          1.6190   -4.9190    2.9730 O.2    53  PHE53      -0.2718
    105  CB         2.2660   -1.7780    2.2290 C.3    53  PHE53       0.0547
    106  CG         3.0220   -0.4840    2.3130 C.ar   53  PHE53      -0.0202
    107  CD1        4.3850   -0.4350    2.0320 C.ar   53  PHE53      -0.0042
    108  CD2        2.3720    0.6890    2.6890 C.ar   53  PHE53      -0.0042
    109  CE1        5.0920    0.7680    2.1250 C.ar   53  PHE53      -0.0003
    110  CE2        3.0660    1.8940    2.7860 C.ar   53  PHE53      -0.0003
    111  CZ         4.4290    1.9330    2.5030 C.ar   53  PHE53      -0.0000
    112  N          0.2630   -3.3840    3.9070 N.am   54  ILE54      -0.1980
    113  CA        -0.9120   -4.2410    3.9280 C.3    54  ILE54       0.1595
    114  C         -2.0560   -3.3690    3.4490 C.2    54  ILE54       0.2287
    115  O         -1.9480   -2.1440    3.4460 O.2    54  ILE54      -0.2864
    116  CB        -1.2820   -4.7510    5.3510 C.3    54  ILE54       0.0276
    117  CG1       -1.5700   -3.5620    6.2760 C.3    54  ILE54       0.0022
    118  CG2       -0.1840   -5.6700    5.8860 C.3    54  ILE54       0.0022
    119  CD1       -2.2500   -3.9420    7.5900 C.3    54  ILE54       0.0001
    120  N        -10.5070    1.9990    5.5480 N.3    58  GLN58      -0.1245
    121  CA       -10.4200    3.2000    6.3650 C.3    58  GLN58       0.1566
    122  C        -11.7740    3.7970    6.7360 C.2    58  GLN58       0.2260
    123  O        -12.5230    4.2610    5.8710 O.2    58  GLN58      -0.2867
    124  CB        -9.5770    4.2560    5.6520 C.3    58  GLN58       0.0367
    125  CG        -9.4520    5.5660    6.4130 C.3    58  GLN58       0.0905
    126  CD        -8.6520    6.6000    5.6540 C.2    58  GLN58       0.2608
    127  OE1       -7.4760    6.3980    5.3610 O.2    58  GLN58      -0.2717
    128  NE2       -9.2890    7.7170    5.3270 N.am   58  GLN58      -0.0878
    129  N         -8.4270    2.1740   11.0840 N.3    76  LEU76      -0.1245
    130  CA        -8.1420    1.3060    9.9550 C.3    76  LEU76       0.1561
    131  C         -8.3850   -0.1320   10.3920 C.2    76  LEU76       0.2260
    132  O         -8.0620   -0.5160   11.5200 O.2    76  LEU76      -0.2867
    133  CB        -6.6900    1.4850    9.5060 C.3    76  LEU76       0.0270
    134  CG        -6.2340    2.9170    9.1980 C.3    76  LEU76       0.0019
    135  CD1       -4.7360    2.9240    8.9220 C.3    76  LEU76       0.0001
    136  CD2       -7.0120    3.4820    8.0060 C.3    76  LEU76       0.0001
    137  N         -1.0090   -7.4490   12.7960 N.3    81  PRO81      -0.2102
    138  CA        -0.6520   -8.5280   13.7200 C.3    81  PRO81       0.1504
    139  C         -1.3370   -8.4140   15.0860 C.2    81  PRO81       0.2575
    140  O         -1.3840   -9.3870   15.8430 O.2    81  PRO81      -0.2718
    141  CB         0.8710   -8.4220   13.8040 C.3    81  PRO81       0.0282
    142  CG         1.1370   -6.9660   13.5080 C.3    81  PRO81       0.0208
    143  CD         0.1810   -6.6870   12.3810 C.3    81  PRO81       0.0893
    144  N         -1.8780   -7.2340   15.3910 N.am   82  ALA82      -0.1980
    145  CA        -2.5560   -7.0010   16.6680 C.3    82  ALA82       0.1597
    146  C         -3.3160   -5.6780   16.6570 C.2    82  ALA82       0.2287
    147  O         -2.9790   -4.7840   15.8870 O.2    82  ALA82      -0.2864
    148  CB        -1.5310   -6.9900   17.8070 C.3    82  ALA82       0.0319
    149  N         -3.9700   -2.1950   17.2250 N.3    84  ILE84      -0.1245
    150  CA        -3.0690   -1.0980   17.5350 C.3    84  ILE84       0.1561
    151  C         -3.7410    0.2600   17.6520 C.2    84  ILE84       0.2260
    152  O         -4.5020    0.6590   16.7750 O.2    84  ILE84      -0.2867
    153  CB        -1.9770   -0.9820   16.4430 C.3    84  ILE84       0.0252
    154  CG1       -1.1190   -2.2480   16.4230 C.3    84  ILE84       0.0019
    155  CG2       -1.1480    0.2740   16.6560 C.3    84  ILE84       0.0019
    156  CD1       -0.4840   -2.5780   17.7490 C.3    84  ILE84       0.0001
@<TRIPOS>BOND
     1    75    76    1
     2    75    74    1
     3    74    73    1
     4    68    67    1
     5    73    70    1
     6    60    61    1
     7    67    66    1
     8    61    62    1
     9    61    64    1
    10   107   109   ar
    11   107   106   ar
    12    66    65    1
    13    63    62    2
    14    62    69   am
    15   109   111   ar
    16   105   106    1
    17   105   102    1
    18    69    70    1
    19   106   108   ar
    20    70    71    1
    21   111   110   ar
    22   108   110   ar
    23    65    64    1
    24   104   103    2
    25   101   102    1
    26   102   103    1
    27   103   112   am
    28   115   114    2
    29   114   113    1
    30    71    72    2
    31    71    77   am
    32   112   113    1
    33   113   116    1
    34    77    78    1
    35    80    79    2
    36   128   126   am
    37   116   118    1
    38   116   117    1
    39    78    79    1
    40    78    81    1
    41   127   126    2
    42    79    85   am
    43   120   121    1
    44   124   121    1
    45   124   125    1
    46   126   125    1
    47    85    86    1
    48   123   122    2
    49    86    87    1
    50   117   119    1
    51   121   122    1
    52    83    81    1
    53    81    82    1
    54    82    84    1
    55    87    89   am
    56    87    88    2
    57    96    95    2
    58    92    91    2
    59    89    90    1
    60   136   134    1
    61    95    94    1
    62    91    90    1
    63    91    93   am
    64   135   134    1
    65   134   133    1
    66    94    93    1
    67    94    97    1
    68    52    50   ar
    69   133   130    1
    70   130   131    1
    71   130   129    1
    72    44    42   ar
    73    99    97    1
    74    50    51   ar
    75    50    49    1
    76   131   132    2
    77    97    98    1
    78    58    57    1
    79    49    46    1
    80    98   100    1
    81    42    41    1
    82    42    43   ar
    83    59    57    1
    84    41    38    1
    85    57    54    1
    86   143   137    1
    87   143   142    1
    88    45    46    1
    89    45    39   am
    90    46    47    1
    91   137   138    1
    92    54    53    1
    93    54    55    1
    94    38    39    1
    95    38    37    1
    96    39    40    2
    97    37    34   am
    98   142   141    1
    99    47    48    2
   100   138   141    1
   101   138   139    1
   102    55    56    2
   103    34    33    1
   104    34    35    2
   105    31    30    2
   106    33    36    1
   107    33    32    1
   108   139   144   am
   109   139   140    2
   110   144   145    1
   111    30    32   am
   112    30    29    1
   113   147   146    2
   114   154   153    1
   115   154   156    1
   116   153   155    1
   117   153   150    1
   118   146   145    1
   119   145   148    1
   120   152   151    2
   121    29    28    1
   122   149   150    1
   123    27    25   am
   124   150   151    1
   125    25    26    2
   126    25    24    1
   127    23    22    2
   128    24    21    1
   129    22    21    1
   130    21    20    1
   131    19    17    1
   132    15    14    2
   133    11     9    1
   134    16    17    1
   135    16    13    1
   136    17    18    1
   137    12    13    1
   138     9    10    1
   139     9     8    2
   140    14    13    1
   141     8     7    1
   142     7     6    1
   143     6     5    1
   144     5     2    1
   145     2     3    1
   146     2     1    1
   147     3     4    2
