@<TRIPOS>MOLECULE
tmp/1tsuA00.pdb
 140 133 0 0 0
SMALL
GASTEIGER

@<TRIPOS>ATOM
      1  N         19.6390   11.9410   15.9270 N.3     8  ARG8       -0.1245
      2  CA        18.9990   10.6740   15.6390 C.3     8  ARG8        0.1563
      3  C         17.9450   11.0350   14.6390 C.2     8  ARG8        0.2260
      4  O         17.2260   11.9980   14.8670 O.2     8  ARG8       -0.2867
      5  CB        18.3100   10.1540   16.8920 C.3     8  ARG8        0.0307
      6  CG        19.2110    9.9230   18.0610 C.3     8  ARG8        0.0489
      7  CD        18.4410    9.6490   19.3660 C.3     8  ARG8        0.2205
      8  NE        19.3470    8.9770   20.2980 N.pl3   8  ARG8       -0.0865
      9  CZ        19.0200    7.9380   21.0440 C.cat   8  ARG8        0.5346
     10  NH1       17.7250    7.4500   21.0180 N.pl3   8  ARG8        0.1354
     11  NH2       19.9850    7.3510   21.8090 N.pl3   8  ARG8        0.1354
     12  N         12.4670    6.2110   14.8330 N.3    23  LEU23      -0.1245
     13  CA        13.8330    6.3530   14.2910 C.3    23  LEU23       0.1561
     14  C         13.9950    5.7260   12.8980 C.2    23  LEU23       0.2260
     15  O         13.6800    4.5380   12.6910 O.2    23  LEU23      -0.2867
     16  CB        14.7920    5.6830   15.2880 C.3    23  LEU23       0.0270
     17  CG        16.2950    5.9210   15.2710 C.3    23  LEU23       0.0019
     18  CD1       16.6520    7.3410   15.5010 C.3    23  LEU23       0.0001
     19  CD2       16.8260    5.1030   16.4160 C.3    23  LEU23       0.0001
     20  N         15.8430    3.7120   10.7620 N.3    25  ASN25      -0.1240
     21  CA        16.9430    2.8230   11.1330 C.3    25  ASN25       0.1653
     22  C         17.4890    1.8380   10.0420 C.2    25  ASN25       0.2266
     23  O         17.0510    0.6590    9.9590 O.2    25  ASN25      -0.2867
     24  CB        16.4850    2.0540   12.4340 C.3    25  ASN25       0.1155
     25  CG        17.6490    1.1730   13.1400 C.2    25  ASN25       0.2627
     26  OD1       17.3940    0.5490   14.2740 O.2    25  ASN25      -0.2716
     27  ND2       18.8660    1.1050   12.5260 N.am   25  ASN25      -0.0877
     28  N         20.0720    0.1740   10.1060 N.3    27  GLY27      -0.1210
     29  CA        20.7110   -0.9650   10.7960 C.3    27  GLY27       0.1956
     30  C         19.6750   -1.9950   11.2660 C.2    27  GLY27       0.2612
     31  O         20.0490   -3.0570   11.8040 O.2    27  GLY27      -0.2717
     32  N         18.3720   -1.7400   10.9790 N.am   28  ALA28      -0.1965
     33  CA        17.3010   -2.6900   11.3840 C.3    28  ALA28       0.1728
     34  C         16.6190   -3.4010   10.1620 C.2    28  ALA28       0.2616
     35  O         16.1370   -2.7510    9.2400 O.2    28  ALA28      -0.2715
     36  CB        16.2520   -1.9550   12.2970 C.3    28  ALA28       0.0334
     37  N         16.6500   -4.7180   10.1150 N.am   29  ASP29      -0.1957
     38  CA        15.9550   -5.3970    8.9950 C.3    29  ASP29       0.1840
     39  C         14.3970   -5.2310    9.0190 C.2    29  ASP29       0.2622
     40  O         13.7350   -5.3760    7.9690 O.2    29  ASP29      -0.2715
     41  CB        16.2240   -6.9300    9.0150 C.3    29  ASP29       0.1450
     42  CG        17.6530   -7.2630    9.1960 C.2    29  ASP29       0.3671
     43  OD1       18.5150   -6.5130    8.6750 O.co2  29  ASP29      -0.2456
     44  OD2       17.9320   -8.2870    9.8740 O.co2  29  ASP29      -0.2456
     45  N         13.8570   -5.0460   10.2650 N.am   30  ASP30      -0.1971
     46  CA        12.4160   -4.9970   10.6000 C.3    30  ASP30       0.1709
     47  C         12.1460   -3.6960   11.3170 C.2    30  ASP30       0.2293
     48  O         13.1150   -3.0140   11.7290 O.2    30  ASP30      -0.2864
     49  CB        12.0330   -6.1120   11.5620 C.3    30  ASP30       0.1436
     50  CG        12.5070   -7.4590   11.0790 C.2    30  ASP30       0.3671
     51  OD1       12.1820   -7.7910    9.9010 O.co2  30  ASP30      -0.2456
     52  OD2       13.2170   -8.1820   11.8430 O.co2  30  ASP30      -0.2456
     53  N         10.0850   -2.0650   14.4420 N.3    32  VAL32      -0.1245
     54  CA         9.6630   -2.4580   15.7620 C.3    32  VAL32       0.1561
     55  C          9.1250   -1.2220   16.5130 C.2    32  VAL32       0.2260
     56  O          9.8580   -0.2050   16.6610 O.2    32  VAL32      -0.2867
     57  CB        10.8840   -3.0430   16.6040 C.3    32  VAL32       0.0252
     58  CG1       10.3500   -3.6770   17.8570 C.3    32  VAL32       0.0019
     59  CG2       11.7160   -4.0160   15.7390 C.3    32  VAL32       0.0019
     60  N          7.9070  -13.8100   17.7770 N.3    45  LYS45      -0.1231
     61  CA         9.1750  -13.8020   17.0640 C.3    45  LYS45       0.1693
     62  C         10.2150  -13.2730   18.0370 C.2    45  LYS45       0.2592
     63  O          9.8610  -12.5850   19.0080 O.2    45  LYS45      -0.2718
     64  CB         9.0870  -12.9020   15.8070 C.3    45  LYS45       0.0285
     65  CG        10.3450  -12.8810   15.0040 C.3    45  LYS45       0.0035
     66  CD        10.2900  -11.8320   13.8290 C.3    45  LYS45       0.0206
     67  CE        11.4010  -12.1790   12.7700 C.3    45  LYS45       0.1093
     68  NZ        11.1770  -11.2840   11.6060 N.3    45  LYS45      -0.1314
     69  N         11.5120  -13.6300   17.8030 N.am   46  MET46      -0.1965
     70  CA        12.6110  -13.1340   18.6440 C.3    46  MET46       0.1736
     71  C         13.4800  -12.2520   17.7130 C.2    46  MET46       0.2616
     72  O         13.7170  -12.6310   16.6070 O.2    46  MET46      -0.2715
     73  CB        13.4750  -14.3040   19.2400 C.3    46  MET46       0.0427
     74  CG        12.8380  -15.2110   20.3370 C.3    46  MET46       0.0599
     75  SD        12.8710  -14.5090   21.9810 S.3    46  MET46      -0.1393
     76  CE        14.7770  -15.0280   22.4960 C.3    46  MET46       0.0692
     77  N         13.9090  -11.0640   18.1570 N.am   47  ILE47      -0.1963
     78  CA        14.8280  -10.2330   17.3680 C.3    47  ILE47       0.1727
     79  C         15.9990   -9.7530   18.2740 C.2    47  ILE47       0.2617
     80  O         15.8160   -9.3670   19.4850 O.2    47  ILE47      -0.2715
     81  CB        14.1260   -9.0030   16.6910 C.3    47  ILE47       0.0290
     82  CG1       13.5760   -8.0600   17.7410 C.3    47  ILE47       0.0022
     83  CG2       12.8680   -9.4730   15.8270 C.3    47  ILE47       0.0023
     84  CD1       12.8670   -6.8630   17.0960 C.3    47  ILE47       0.0001
     85  N         17.2100   -9.7890   17.7290 N.am   48  GLY48      -0.1940
     86  CA        18.3340   -9.3630   18.5400 C.3    48  GLY48       0.2014
     87  C         19.0550   -8.1230   18.0250 C.2    48  GLY48       0.2639
     88  O         18.9450   -7.6620   16.8330 O.2    48  GLY48      -0.2714
     89  N         19.8060   -7.5900   18.9550 N.am   49  GLY49      -0.1939
     90  CA        20.6920   -6.4930   18.6670 C.3    49  GLY49       0.2014
     91  C         21.8230   -6.5800   19.6940 C.2    49  GLY49       0.2635
     92  O         22.1750   -7.6440   20.2100 O.2    49  GLY49      -0.2714
     93  N         22.4150   -5.4300   19.9330 N.am   50  ILE50      -0.2030
     94  CA        23.4730   -5.2260   20.9240 C.3    50  ILE50       0.1282
     95  C         22.8480   -5.6030   22.3270 C.3    50  ILE50       0.2035
     96  O         21.7930   -4.9800   22.7380 O.3    50  ILE50      -0.2185
     97  CB        23.8230   -3.6580   20.8870 C.3    50  ILE50       0.0226
     98  CG1       24.7080   -3.3550   19.6330 C.3    50  ILE50       0.0018
     99  CG2       24.2740   -3.1460   22.2990 C.3    50  ILE50       0.0018
    100  CD1       25.8430   -4.3200   19.4450 C.3    50  ILE50       0.0001
    101  N         18.3450  -10.5230   22.9050 N.3    53  PHE53      -0.1241
    102  CA        17.0420  -10.6010   22.2060 C.3    53  PHE53       0.1605
    103  C         15.8470  -10.1340   22.9540 C.2    53  PHE53       0.2264
    104  O         15.7690  -10.2640   24.1880 O.2    53  PHE53      -0.2867
    105  CB        16.7130  -12.0520   21.7440 C.3    53  PHE53       0.0534
    106  CG        17.5560  -12.5370   20.6090 C.ar   53  PHE53      -0.0203
    107  CD1       18.9350  -12.7710   20.7930 C.ar   53  PHE53      -0.0042
    108  CD2       16.9910  -12.6700   19.3070 C.ar   53  PHE53      -0.0042
    109  CE1       19.7670  -13.1160   19.6950 C.ar   53  PHE53      -0.0003
    110  CE2       17.7970  -13.0220   18.1950 C.ar   53  PHE53      -0.0003
    111  CZ        19.1950  -13.2500   18.3830 C.ar   53  PHE53      -0.0000
    112  N         10.7340   -2.2700   23.0090 N.3    80  THR80      -0.1204
    113  CA        11.8260   -1.5180   22.4060 C.3    80  THR80       0.1979
    114  C         11.8370   -0.0790   23.0220 C.2    80  THR80       0.2460
    115  O         10.8260    0.6310   22.9790 O.2    80  THR80      -0.2732
    116  CB        11.6340   -1.4790   20.8220 C.3    80  THR80       0.1783
    117  OG1       12.7550   -0.8090   20.1950 O.3    80  THR80      -0.2211
    118  CG2       10.2970   -0.7620   20.4280 C.3    80  THR80       0.0376
    119  N         13.0080    0.3640   23.5490 N.am   81  PRO81      -0.2717
    120  CA        13.2180    1.7090   24.1730 C.3    81  PRO81       0.1535
    121  C         12.7360    2.9250   23.3430 C.2    81  PRO81       0.2598
    122  O         12.3220    3.9930   23.8780 O.2    81  PRO81      -0.2715
    123  CB        14.7600    1.7550   24.4190 C.3    81  PRO81       0.0310
    124  CG        15.4010    0.5730   23.4920 C.3    81  PRO81       0.0237
    125  CD        14.2660   -0.4670   23.5590 C.3    81  PRO81       0.0939
    126  N         12.8310    2.7280   22.0360 N.am   82  VAL82      -0.1978
    127  CA        12.5030    3.7060   20.9750 C.3    82  VAL82       0.1596
    128  C         11.7590    3.0160   19.8180 C.2    82  VAL82       0.2287
    129  O         12.0660    1.8800   19.4520 O.2    82  VAL82      -0.2864
    130  CB        13.8730    4.3500   20.3070 C.3    82  VAL82       0.0276
    131  CG1       13.5360    5.5210   19.3600 C.3    82  VAL82       0.0022
    132  CG2       14.8620    4.7970   21.3830 C.3    82  VAL82       0.0022
    133  N         11.2230    2.0380   16.0830 N.3    84  ILE84      -0.1245
    134  CA        12.1080    1.8210   14.9530 C.3    84  ILE84       0.1561
    135  C         11.4830    1.5160   13.5840 C.2    84  ILE84       0.2260
    136  O         10.7760    0.5180   13.4390 O.2    84  ILE84      -0.2867
    137  CB        13.1030    0.6600   15.2870 C.3    84  ILE84       0.0252
    138  CG1       13.9410    0.9980   16.5680 C.3    84  ILE84       0.0019
    139  CG2       13.9230    0.3030   14.0640 C.3    84  ILE84       0.0019
    140  CD1       14.8170   -0.2940   17.1120 C.3    84  ILE84       0.0001
@<TRIPOS>BOND
     1    40    39    2
     2    43    42   ar
     3    38    41    1
     4    38    39    1
     5    38    37    1
     6    41    42    1
     7    39    45   am
     8    42    44   ar
     9    35    34    2
    10    51    50   ar
    11    23    22    2
    12    22    21    1
    13    28    29    1
    14    37    34   am
    15    34    33    1
    16    45    46    1
    17    46    47    1
    18    46    49    1
    19    20    21    1
    20    29    30    1
    21    32    30   am
    22    32    33    1
    23    50    49    1
    24    50    52   ar
    25    21    24    1
    26    30    31    2
    27    47    48    2
    28    33    36    1
    29    68    67    1
    30    24    25    1
    31    27    25   am
    32    15    14    2
    33    67    66    1
    34    14    13    1
    35    25    26    2
    36   136   135    2
    37   135   134    1
    38    66    65    1
    39   139   137    1
    40    13    12    1
    41    13    16    1
    42    53    54    1
    43     3     4    2
    44     3     2    1
    45   134   137    1
    46   134   133    1
    47    65    64    1
    48    17    16    1
    49    17    18    1
    50    17    19    1
    51   137   138    1
    52     2     1    1
    53     2     5    1
    54    59    57    1
    55    54    55    1
    56    54    57    1
    57    64    61    1
    58    83    81    1
    59    55    56    2
    60   138   140    1
    61    57    58    1
    62    72    71    2
    63    81    78    1
    64    81    82    1
    65    88    87    2
    66     5     6    1
    67    61    60    1
    68    61    62    1
    69    84    82    1
    70    78    77    1
    71    78    79    1
    72    71    77   am
    73    71    70    1
    74    85    79   am
    75    85    86    1
    76    69    62   am
    77    69    70    1
    78    87    86    1
    79    87    89   am
    80    62    63    2
    81     6     7    1
    82   110   111   ar
    83   110   108   ar
    84    79    80    2
    85   111   109   ar
    86    70    73    1
    87    90    89    1
    88    90    91    1
    89    73    74    1
    90   108   106   ar
    91   131   130    1
    92     7     8    1
    93   100    98    1
    94   129   128    2
    95    98    97    1
    96    91    93   am
    97    91    92    2
    98   109   107   ar
    99   128   127    1
   100    93    94    1
   101   117   116    1
   102     8     9    2
   103   130   127    1
   104   130   132    1
   105    74    75    1
   106   118   116    1
   107   106   107   ar
   108   106   105    1
   109   116   113    1
   110    97    94    1
   111    97    99    1
   112    94    95    1
   113   127   126    1
   114    10     9    1
   115     9    11    1
   116   105   102    1
   117    75    76    1
   118   126   121   am
   119   102   101    1
   120   102   103    1
   121    95    96    1
   122   113   112    1
   123   113   114    1
   124   103   104    2
   125   115   114    2
   126   114   119   am
   127   121   122    2
   128   121   120    1
   129   124   125    1
   130   124   123    1
   131   119   125    1
   132   119   120    1
   133   120   123    1
