@<TRIPOS>MOLECULE
tmp/1tt0C03.pdb
 100 94 0 0 0
SMALL
GASTEIGER

@<TRIPOS>ATOM
      1  N         36.6270   42.2740   92.5230 N.3   318  PHE318     -0.1241
      2  CA        35.3600   42.8430   92.1010 C.3   318  PHE318      0.1605
      3  C         34.6370   43.5540   93.2260 C.2   318  PHE318      0.2264
      4  O         34.6650   43.0980   94.3730 O.2   318  PHE318     -0.2867
      5  CB        34.4810   41.6720   91.6280 C.3   318  PHE318      0.0534
      6  CG        33.0360   42.0460   91.3500 C.ar  318  PHE318     -0.0203
      7  CD1       32.6810   42.8180   90.2340 C.ar  318  PHE318     -0.0042
      8  CD2       32.0350   41.6320   92.2140 C.ar  318  PHE318     -0.0042
      9  CE1       31.3680   43.1500   89.9590 C.ar  318  PHE318     -0.0003
     10  CE2       30.6400   41.9650   91.9420 C.ar  318  PHE318     -0.0003
     11  CZ        30.3290   42.6960   90.7930 C.ar  318  PHE318     -0.0000
     12  N         30.9290   46.4910   93.4670 N.3   320  GLN320     -0.1245
     13  CA        30.0660   47.4910   92.8590 C.3   320  GLN320      0.1566
     14  C         29.9700   48.6850   93.7960 C.2   320  GLN320      0.2260
     15  O         30.1330   48.5250   94.9950 O.2   320  GLN320     -0.2867
     16  CB        28.6840   46.9350   92.5070 C.3   320  GLN320      0.0367
     17  CG        28.7790   45.8920   91.4150 C.3   320  GLN320      0.0905
     18  CD        27.4960   45.1480   91.1780 C.2   320  GLN320      0.2608
     19  OE1       26.9090   44.6300   92.1090 O.2   320  GLN320     -0.2717
     20  NE2       27.0750   45.0430   89.9120 N.am  320  GLN320     -0.0878
     21  N         28.5490   36.0270   84.6940 N.3   410  SER410     -0.1202
     22  CA        27.8630   34.9510   85.4080 C.3   410  SER410      0.2020
     23  C         27.5670   35.3420   86.8650 C.2   410  SER410      0.2619
     24  O         26.8680   34.6190   87.5690 O.2   410  SER410     -0.2717
     25  CB        28.6950   33.6570   85.3440 C.3   410  SER410      0.2103
     26  OG        29.8450   33.6820   86.2060 O.3   410  SER410     -0.2182
     27  N         28.0790   36.4830   87.3110 N.am  411  TYR411     -0.1961
     28  CA        27.9360   36.9600   88.7000 C.3   411  TYR411      0.1771
     29  C         27.6670   38.4940   88.6310 C.2   411  TYR411      0.2620
     30  O         27.8340   39.1090   87.5870 O.2   411  TYR411     -0.2715
     31  CB        29.2320   36.6680   89.5240 C.3   411  TYR411      0.0574
     32  CG        30.4720   37.3080   88.9400 C.ar  411  TYR411     -0.0198
     33  CD1       31.1650   36.6980   87.9160 C.ar  411  TYR411     -0.0009
     34  CD2       30.9270   38.5670   89.3790 C.ar  411  TYR411     -0.0009
     35  CE1       32.2510   37.2590   87.3320 C.ar  411  TYR411      0.0417
     36  CE2       32.0300   39.1320   88.8120 C.ar  411  TYR411      0.0417
     37  CZ        32.6780   38.5100   87.7830 C.ar  411  TYR411      0.1957
     38  OH        33.7200   39.0720   87.1190 O.3   411  TYR411     -0.2866
     39  N         27.2240   39.0790   89.7420 N.am  412  GLY412     -0.1940
     40  CA        27.0740   40.5340   89.8630 C.3   412  GLY412      0.2014
     41  C         25.8210   41.1540   89.3130 C.2   412  GLY412      0.2638
     42  O         25.8460   42.3180   88.9890 O.2   412  GLY412     -0.2714
     43  N         24.7010   40.4200   89.2350 N.am  413  ALA413     -0.1977
     44  CA        23.4750   41.0110   88.6890 C.3   413  ALA413      0.1597
     45  C         22.9560   42.1410   89.6060 C.2   413  ALA413      0.2287
     46  O         23.0700   42.0440   90.8110 O.2   413  ALA413     -0.2864
     47  CB        22.3570   39.9660   88.5130 C.3   413  ALA413      0.0319
     48  N         20.5120   44.0240   91.6140 N.3   415  GLN415     -0.1301
     49  CA        19.3550   43.7950   92.4160 C.3   415  GLN415      0.1252
     50  C         18.6660   45.1240   92.7770 C.3   415  GLN415      0.2009
     51  O         19.2900   46.2780   93.0250 O.3   415  GLN415     -0.2188
     52  CB        19.7250   42.9560   93.6480 C.3   415  GLN415      0.0314
     53  CG        20.3800   41.6020   93.2570 C.3   415  GLN415      0.0901
     54  CD        19.4110   40.6260   92.5810 C.2   415  GLN415      0.2608
     55  OE1       19.8030   39.8530   91.6850 O.2   415  GLN415     -0.2717
     56  NE2       18.1380   40.6500   93.0150 N.am  415  GLN415     -0.0878
     57  N         26.1660   43.9140   99.6650 N.3   490  GLY490     -0.1210
     58  CA        26.0070   42.7270   98.8340 C.3   490  GLY490      0.1956
     59  C         27.0120   42.5510   97.7180 C.2   490  GLY490      0.2612
     60  O         27.1120   41.4570   97.1840 O.2   490  GLY490     -0.2717
     61  N         27.7010   43.6220   97.2900 N.am  491  SER491     -0.1952
     62  CA        28.8310   43.5150   96.3360 C.3   491  SER491      0.1924
     63  C         30.0820   44.2240   96.8440 C.2   491  SER491      0.2314
     64  O         30.6450   45.1090   96.1910 O.2   491  SER491     -0.2863
     65  CB        28.4790   44.0940   94.9720 C.3   491  SER491      0.2116
     66  OG        27.2870   43.5000   94.4720 O.3   491  SER491     -0.2180
     67  N         36.0820   41.9830   96.9280 N.3   494  GLN494     -0.1245
     68  CA        36.3910   40.5880   97.0990 C.3   494  GLN494      0.1566
     69  C         37.1980   40.0320   95.9550 C.2   494  GLN494      0.2260
     70  O         37.1160   40.5050   94.8490 O.2   494  GLN494     -0.2867
     71  CB        35.1080   39.7750   97.3320 C.3   494  GLN494      0.0367
     72  CG        34.1430   39.8700   96.1400 C.3   494  GLN494      0.0905
     73  CD        32.7740   39.3840   96.4760 C.2   494  GLN494      0.2608
     74  OE1       32.5260   38.1880   96.3660 O.2   494  GLN494     -0.2717
     75  NE2       31.8910   40.2810   96.8960 N.am  494  GLN494     -0.0878
     76  N         37.5200   37.0510   93.4550 N.3   496  MET496     -0.1230
     77  CA        36.5760   36.1020   92.8980 C.3   496  MET496      0.1702
     78  C         37.1960   34.6700   92.8760 C.2   496  MET496      0.2592
     79  O         38.4160   34.4870   92.8830 O.2   496  MET496     -0.2718
     80  CB        36.1720   36.5560   91.4970 C.3   496  MET496      0.0401
     81  CG        35.4880   37.9480   91.5390 C.3   496  MET496      0.0596
     82  SD        33.9830   38.0100   92.5720 S.3   496  MET496     -0.1393
     83  CE        32.9760   36.8440   91.7680 C.3   496  MET496      0.0692
     84  N         36.3160   33.6800   92.9060 N.am  497  GLU497     -0.1979
     85  CA        36.6570   32.2680   92.8240 C.3   497  GLU497      0.1602
     86  C         37.7240   32.0630   91.7440 C.2   497  GLU497      0.2287
     87  O         37.5520   32.5420   90.6500 O.2   497  GLU497     -0.2864
     88  CB        35.3650   31.4950   92.5250 C.3   497  GLU497      0.0415
     89  CG        35.4580   30.0470   92.1760 C.3   497  GLU497      0.1163
     90  CD        34.0780   29.4240   91.7980 C.2   497  GLU497      0.3649
     91  OE1       33.2010   30.1220   91.2110 O.co2 497  GLU497     -0.2457
     92  OE2       33.8620   28.2250   92.0480 O.co2 497  GLU497     -0.2457
     93  N         37.1440   31.9660   87.6850 N.3   500  LEU500     -0.1245
     94  CA        35.8710   32.5010   87.2370 C.3   500  LEU500      0.1561
     95  C         36.0440   33.5790   86.1560 C.2   500  LEU500      0.2260
     96  O         35.1860   33.7920   85.3110 O.2   500  LEU500     -0.2867
     97  CB        35.1280   33.1180   88.4190 C.3   500  LEU500      0.0270
     98  CG        33.6360   33.2610   88.2970 C.3   500  LEU500      0.0019
     99  CD1       32.9820   31.9050   88.1780 C.3   500  LEU500      0.0001
    100  CD2       33.1070   33.8930   89.5940 C.3   500  LEU500      0.0001
@<TRIPOS>BOND
     1    21    22    1
     2    96    95    2
     3    25    22    1
     4    25    26    1
     5    22    23    1
     6    95    94    1
     7    23    27   am
     8    23    24    2
     9    38    37    1
    10    94    93    1
    11    94    97    1
    12    27    28    1
    13    35    37   ar
    14    35    33   ar
    15    30    29    2
    16    37    36   ar
    17    33    32   ar
    18    99    98    1
    19    98    97    1
    20    98   100    1
    21    47    44    1
    22    29    28    1
    23    29    39   am
    24    44    43    1
    25    44    45    1
    26    28    31    1
    27    36    34   ar
    28    32    34   ar
    29    32    31    1
    30    42    41    2
    31    43    41   am
    32    41    40    1
    33    45    46    2
    34    39    40    1
    35    20    18   am
    36     9     7   ar
    37     9    11   ar
    38     7     6   ar
    39    87    86    2
    40    11    10   ar
    41    18    17    1
    42    18    19    2
    43    91    90   ar
    44     6     5    1
    45     6     8   ar
    46    17    16    1
    47    80    81    1
    48    80    77    1
    49    81    82    1
    50    48    49    1
    51     5     2    1
    52    55    54    2
    53    86    85    1
    54    83    82    1
    55    90    92   ar
    56    90    89    1
    57    10     8   ar
    58     2     1    1
    59     2     3    1
    60    89    88    1
    61    49    50    1
    62    49    52    1
    63    16    13    1
    64    88    85    1
    65    54    56   am
    66    54    53    1
    67    50    51    1
    68    85    84    1
    69    13    12    1
    70    13    14    1
    71    78    79    2
    72    78    77    1
    73    78    84   am
    74    77    76    1
    75     3     4    2
    76    53    52    1
    77    14    15    2
    78    66    65    1
    79    70    69    2
    80    65    62    1
    81    69    68    1
    82    72    73    1
    83    72    71    1
    84    64    63    2
    85    62    63    1
    86    62    61    1
    87    74    73    2
    88    73    75   am
    89    67    68    1
    90    68    71    1
    91    60    59    2
    92    61    59   am
    93    59    58    1
    94    58    57    1
