@<TRIPOS>MOLECULE
tmp/1tt0D04.pdb
 70 65 0 0 0
SMALL
GASTEIGER

@<TRIPOS>ATOM
      1  N         -7.5410   47.8120   64.9570 N.3   242  VAL242     -0.1231
      2  CA        -8.4290   48.9550   64.7880 C.3   242  VAL242      0.1692
      3  C         -9.8410   48.4930   64.5360 C.2   242  VAL242      0.2592
      4  O        -10.0980   47.8430   63.5340 O.2   242  VAL242     -0.2718
      5  CB        -7.9780   49.8280   63.6190 C.3   242  VAL242      0.0266
      6  CG1       -8.9430   51.0250   63.3750 C.3   242  VAL242      0.0020
      7  CG2       -6.5620   50.3340   63.8820 C.3   242  VAL242      0.0020
      8  N        -10.7730   48.8840   65.4040 N.am  243  ARG243     -0.1966
      9  CA       -12.2010   48.5630   65.2160 C.3   243  ARG243      0.1729
     10  C        -12.8170   49.4860   64.2250 C.2   243  ARG243      0.2616
     11  O        -12.4780   50.6870   64.1560 O.2   243  ARG243     -0.2715
     12  CB       -12.9470   48.6900   66.5360 C.3   243  ARG243      0.0348
     13  CG       -12.4260   47.7530   67.6460 C.3   243  ARG243      0.0492
     14  CD       -12.8630   48.0760   69.0790 C.3   243  ARG243      0.2205
     15  NE       -12.2810   49.3180   69.6070 N.pl3 243  ARG243     -0.0865
     16  CZ       -12.9210   50.4850   69.6890 C.cat 243  ARG243      0.5346
     17  NH1      -14.1750   50.6670   69.2450 N.pl3 243  ARG243      0.1354
     18  NH2      -12.2770   51.5280   70.1490 N.pl3 243  ARG243      0.1354
     19  N        -13.8100   48.9720   63.4870 N.am  244  ASN244     -0.1958
     20  CA       -14.5750   49.8270   62.5650 C.3   244  ASN244      0.1819
     21  C        -15.6300   50.6060   63.3790 C.2   244  ASN244      0.2621
     22  O        -15.7690   50.3690   64.5890 O.2   244  ASN244     -0.2715
     23  CB       -15.1780   48.9950   61.4160 C.3   244  ASN244      0.1195
     24  CG       -16.2860   48.0560   61.8470 C.2   244  ASN244      0.2630
     25  OD1      -16.4760   47.8110   63.0260 O.2   244  ASN244     -0.2716
     26  ND2      -17.0540   47.5590   60.8650 N.am  244  ASN244     -0.0877
     27  N        -16.3210   51.5350   62.7320 N.am  245  ALA245     -0.1977
     28  CA       -17.1910   52.4990   63.3990 C.3   245  ALA245      0.1597
     29  C        -18.3610   51.8340   64.1270 C.2   245  ALA245      0.2287
     30  O        -18.8150   52.3700   65.1620 O.2   245  ALA245     -0.2864
     31  CB       -17.7060   53.4660   62.4370 C.3   245  ALA245      0.0319
     32  N        -18.2030   48.5820   65.3450 N.3   247  ASN247     -0.1240
     33  CA       -17.6470   47.5280   66.1910 C.3   247  ASN247      0.1653
     34  C        -18.1360   46.1540   65.7400 C.2   247  ASN247      0.2266
     35  O        -18.5990   45.3170   66.5560 O.2   247  ASN247     -0.2867
     36  CB       -17.9650   47.7990   67.6690 C.3   247  ASN247      0.1155
     37  CG       -17.1530   48.9270   68.2090 C.2   247  ASN247      0.2627
     38  OD1      -15.9410   48.9120   68.0480 O.2   247  ASN247     -0.2716
     39  ND2      -17.8020   49.9530   68.7700 N.am  247  ASN247     -0.0877
     40  N         -6.5840   48.3930   72.2870 N.3   287  SER287     -0.1202
     41  CA        -7.4050   48.5470   71.0680 C.3   287  SER287      0.2020
     42  C         -8.8250   49.0670   71.3410 C.2   287  SER287      0.2619
     43  O         -9.6170   49.2310   70.4150 O.2   287  SER287     -0.2717
     44  CB        -7.4820   47.2100   70.3170 C.3   287  SER287      0.2103
     45  OG        -6.1700   46.7210   70.0110 O.3   287  SER287     -0.2182
     46  N         -9.1500   49.3020   72.6050 N.am  288  GLY288     -0.1956
     47  CA       -10.4250   49.7830   73.0400 C.3   288  GLY288      0.1869
     48  C        -11.4360   48.7350   73.5080 C.2   288  GLY288      0.2309
     49  O        -12.6050   49.0540   73.6510 O.2   288  GLY288     -0.2863
     50  N        -12.6050   46.1700   76.5980 N.3   290  GLY290     -0.1225
     51  CA       -12.5270   46.2880   78.0380 C.3   290  GLY290      0.1811
     52  C        -12.2720   47.7170   78.4430 C.2   290  GLY290      0.2280
     53  O        -12.7740   48.6720   77.7930 O.2   290  GLY290     -0.2866
     54  N        -17.8150   49.5540   77.4450 N.3   302  GLU302     -0.1231
     55  CA       -18.8030   49.3410   76.4130 C.3   302  GLU302      0.1699
     56  C        -18.6000   47.9910   75.7030 C.2   302  GLU302      0.2592
     57  O        -19.5630   47.3150   75.3750 O.2   302  GLU302     -0.2718
     58  CB       -18.7250   50.4640   75.3850 C.3   302  GLU302      0.0402
     59  CG       -19.6740   50.2350   74.2070 C.3   302  GLU302      0.1161
     60  CD       -19.8300   51.4570   73.3010 C.2   302  GLU302      0.3649
     61  OE1      -19.5970   52.6010   73.7750 O.co2 302  GLU302     -0.2457
     62  OE2      -20.1920   51.2510   72.1100 O.co2 302  GLU302     -0.2457
     63  N        -17.3480   47.6340   75.4340 N.am  303  LEU303     -0.1980
     64  CA       -17.0020   46.4040   74.7310 C.3   303  LEU303      0.1596
     65  C        -16.3130   45.3860   75.6260 C.2   303  LEU303      0.2287
     66  O        -15.4000   45.7450   76.3500 O.2   303  LEU303     -0.2864
     67  CB       -16.0790   46.7110   73.5410 C.3   303  LEU303      0.0297
     68  CG       -16.6330   47.6210   72.4570 C.3   303  LEU303      0.0022
     69  CD1      -15.5670   47.8320   71.4120 C.3   303  LEU303      0.0001
     70  CD2      -17.8990   46.9970   71.8400 C.3   303  LEU303      0.0001
@<TRIPOS>BOND
     1    26    24   am
     2    23    24    1
     3    23    20    1
     4    24    25    2
     5    31    28    1
     6    20    21    1
     7    20    19    1
     8    27    21   am
     9    27    28    1
    10     6     5    1
    11    21    22    2
    12    28    29    1
    13    19    10   am
    14     4     3    2
    15     5     7    1
    16     5     2    1
    17    29    30    2
    18    11    10    2
    19    10     9    1
    20     3     2    1
    21     3     8   am
    22     2     1    1
    23     9     8    1
    24     9    12    1
    25    32    33    1
    26    34    33    1
    27    34    35    2
    28    33    36    1
    29    12    13    1
    30    13    14    1
    31    36    37    1
    32    38    37    2
    33    37    39   am
    34    14    15    1
    35    17    16    1
    36    15    16    2
    37    16    18    1
    38    45    44    1
    39    44    41    1
    40    43    42    2
    41    41    42    1
    42    41    40    1
    43    42    46   am
    44    69    68    1
    45    70    68    1
    46    62    60   ar
    47    68    67    1
    48    46    47    1
    49    47    48    1
    50    60    61   ar
    51    60    59    1
    52    48    49    2
    53    67    64    1
    54    59    58    1
    55    64    63    1
    56    64    65    1
    57    57    56    2
    58    58    55    1
    59    63    56   am
    60    65    66    2
    61    56    55    1
    62    55    54    1
    63    50    51    1
    64    53    52    2
    65    51    52    1
