@<TRIPOS>MOLECULE
tmp/1tt5D00.pdb
 211 207 0 0 0
SMALL
GASTEIGER

@<TRIPOS>ATOM
      1  N         25.8000   13.6620   52.1830 N.3    16  HIS16      -0.1227
      2  CA        26.9890   12.8400   52.3750 C.3    16  HIS16       0.1737
      3  C         26.5660   11.7020   53.3020 C.2    16  HIS16       0.2438
      4  O         25.7860   11.9050   54.2300 O.2    16  HIS16      -0.2733
      5  CB        28.1190   13.6680   53.0160 C.3    16  HIS16       0.0758
      6  CG        29.3250   12.8640   53.4100 C.ar   16  HIS16       0.0818
      7  ND1       30.6090   13.2240   53.0550 N.ar   16  HIS16      -0.2268
      8  CD2       29.4460   11.7390   54.1550 C.ar   16  HIS16       0.1154
      9  CE1       31.4650   12.3550   53.5620 C.ar   16  HIS16       0.1986
     10  NE2       30.7860   11.4440   54.2330 N.ar   16  HIS16      -0.2212
     11  N         27.0570   10.4830   53.0470 N.am   17  PRO17      -0.2718
     12  CA        26.7090    9.3310   53.8860 C.3    17  PRO17       0.1535
     13  C         26.7470    9.6130   55.3990 C.2    17  PRO17       0.2598
     14  O         25.6990    9.7160   56.0480 O.2    17  PRO17      -0.2715
     15  CB        27.7330    8.2880   53.4570 C.3    17  PRO17       0.0310
     16  CG        27.8500    8.5580   51.9860 C.3    17  PRO17       0.0237
     17  CD        27.9050   10.0740   51.9120 C.3    17  PRO17       0.0939
     18  N         27.9560    9.7400   55.9450 N.am   18  ASP18      -0.1972
     19  CA        28.1600    9.9990   57.3730 C.3    18  ASP18       0.1709
     20  C         27.2720   11.1060   57.9570 C.2    18  ASP18       0.2293
     21  O         27.0340   11.1530   59.1640 O.2    18  ASP18      -0.2864
     22  CB        29.6330   10.3500   57.6420 C.3    18  ASP18       0.1436
     23  CG        30.5780    9.1850   57.3770 C.2    18  ASP18       0.3671
     24  OD1       30.2200    8.0370   57.7140 O.co2  18  ASP18      -0.2456
     25  OD2       31.6900    9.4190   56.8520 O.co2  18  ASP18      -0.2456
     26  N         21.8870   17.7620   62.9490 N.3    22  SER22      -0.1217
     27  CA        21.8950   18.4130   64.2520 C.3    22  SER22       0.1889
     28  C         22.1540   19.9040   64.1130 C.2    22  SER22       0.2288
     29  O         22.8320   20.3140   63.1730 O.2    22  SER22      -0.2866
     30  CB        22.9690   17.8480   65.2280 C.3    22  SER22       0.2089
     31  OG        24.2690   18.1380   64.8420 O.3    22  SER22      -0.2183
     32  N         23.9330   21.7190   66.0880 N.3    24  GLU24      -0.1231
     33  CA        25.3260   21.9330   66.4480 C.3    24  GLU24       0.1699
     34  C         26.3300   21.6500   65.3330 C.2    24  GLU24       0.2592
     35  O         27.5210   21.4480   65.5830 O.2    24  GLU24      -0.2718
     36  CB        25.6620   21.1380   67.7130 C.3    24  GLU24       0.0402
     37  CG        25.0010   21.7280   68.9620 C.3    24  GLU24       0.1161
     38  CD        25.5130   21.1210   70.2560 C.2    24  GLU24       0.3649
     39  OE1       26.3680   20.2120   70.1910 O.co2  24  GLU24      -0.2457
     40  OE2       25.0600   21.5540   71.3400 O.co2  24  GLU24      -0.2457
     41  N         25.8310   21.6370   64.1000 N.am   25  SER25      -0.1952
     42  CA        26.6800   21.4480   62.9420 C.3    25  SER25       0.1924
     43  C         26.9350   22.8870   62.5570 C.2    25  SER25       0.2314
     44  O         27.9360   23.2320   61.9350 O.2    25  SER25      -0.2863
     45  CB        26.0120   20.6220   61.8040 C.3    25  SER25       0.2116
     46  OG        26.8820   20.3410   60.7320 O.3    25  SER25      -0.2180
     47  N         29.0000   23.7570   65.2680 N.3    28  PHE28      -0.1241
     48  CA        30.3250   23.2370   64.9870 C.3    28  PHE28       0.1605
     49  C         30.9630   24.0770   63.8980 C.2    28  PHE28       0.2264
     50  O         32.1790   24.0820   63.7320 O.2    28  PHE28      -0.2867
     51  CB        30.2980   21.7940   64.4950 C.3    28  PHE28       0.0534
     52  CG        31.6450   21.3160   64.0490 C.ar   28  PHE28      -0.0203
     53  CD1       32.6740   21.1660   64.9790 C.ar   28  PHE28      -0.0042
     54  CD2       31.9320   21.1360   62.6980 C.ar   28  PHE28      -0.0042
     55  CE1       33.9720   20.8520   64.5730 C.ar   28  PHE28      -0.0003
     56  CE2       33.2330   20.8200   62.2800 C.ar   28  PHE28      -0.0003
     57  CZ        34.2530   20.6800   63.2200 C.ar   28  PHE28      -0.0000
     58  N         33.4600   25.8510   66.1410 N.3    32  THR32      -0.1203
     59  CA        34.6320   24.9940   66.3010 C.3    32  THR32       0.1994
     60  C         35.6890   24.8850   65.2110 C.2    32  THR32       0.2618
     61  O         36.8670   25.1270   65.4700 O.2    32  THR32      -0.2717
     62  CB        34.2110   23.5640   66.6800 C.3    32  THR32       0.1784
     63  OG1       33.4380   23.6000   67.8880 O.3    32  THR32      -0.2211
     64  CG2       35.4380   22.6930   66.9120 C.3    32  THR32       0.0376
     65  N         35.2860   24.5100   64.0070 N.am   33  CYS33      -0.1969
     66  CA        36.2320   24.3370   62.9140 C.3    33  CYS33       0.1712
     67  C         37.2600   25.4560   62.7820 C.2    33  CYS33       0.2296
     68  O         36.9030   26.5930   62.4880 O.2    33  CYS33      -0.2864
     69  CB        35.4700   24.1890   61.6020 C.3    33  CYS33       0.0983
     70  SG        36.4060   23.3660   60.3290 S.3    33  CYS33      -0.0798
     71  N         49.2910   21.9190   62.6900 N.3   120  ARG120     -0.1231
     72  CA        48.5510   20.7860   63.2160 C.3   120  ARG120      0.1694
     73  C         47.3190   21.2660   63.9790 C.2   120  ARG120      0.2592
     74  O         46.4160   20.4880   64.2740 O.2   120  ARG120     -0.2718
     75  CB        49.4540   19.9380   64.1220 C.3   120  ARG120      0.0321
     76  CG        48.7050   18.8820   64.9280 C.3   120  ARG120      0.0489
     77  CD        49.6370   17.9740   65.7370 C.3   120  ARG120      0.2205
     78  NE        50.2420   16.9190   64.9240 N.pl3 120  ARG120     -0.0865
     79  CZ        51.4460   16.9920   64.3640 C.cat 120  ARG120      0.5346
     80  NH1       52.1950   18.0750   64.5270 N.pl3 120  ARG120      0.1354
     81  NH2       51.9010   15.9780   63.6370 N.pl3 120  ARG120      0.1354
     82  N         47.2750   22.5550   64.2850 N.am  121  GLN121     -0.1966
     83  CA        46.1460   23.1080   65.0180 C.3   121  GLN121      0.1733
     84  C         44.8790   23.2090   64.1860 C.2   121  GLN121      0.2616
     85  O         43.7740   23.1270   64.7230 O.2   121  GLN121     -0.2715
     86  CB        46.4700   24.5090   65.5370 C.3   121  GLN121      0.0408
     87  CG        47.7030   24.5980   66.4200 C.3   121  GLN121      0.0908
     88  CD        47.7810   25.9180   67.1730 C.2   121  GLN121      0.2608
     89  OE1       47.7210   26.9960   66.5740 O.2   121  GLN121     -0.2717
     90  NE2       47.9190   25.8370   68.4930 N.am  121  GLN121     -0.0878
     91  N         45.0360   23.3860   62.8780 N.am  122  PHE122     -0.1960
     92  CA        43.8860   23.5610   62.0070 C.3   122  PHE122      0.1771
     93  C         43.1810   22.3150   61.4890 C.2   122  PHE122      0.2620
     94  O         43.7850   21.2650   61.3260 O.2   122  PHE122     -0.2715
     95  CB        44.2820   24.4580   60.8330 C.3   122  PHE122      0.0574
     96  CG        44.7500   25.8200   61.2540 C.ar  122  PHE122     -0.0200
     97  CD1       46.1000   26.1190   61.3080 C.ar  122  PHE122     -0.0042
     98  CD2       43.8380   26.7870   61.6650 C.ar  122  PHE122     -0.0042
     99  CE1       46.5440   27.3570   61.7770 C.ar  122  PHE122     -0.0003
    100  CE2       44.2740   28.0320   62.1390 C.ar  122  PHE122     -0.0003
    101  CZ        45.6320   28.3130   62.1920 C.ar  122  PHE122     -0.0000
    102  N         41.8840   22.4540   61.2360 N.am  123  HIS123     -0.1959
    103  CA        41.0650   21.3720   60.7010 C.3   123  HIS123      0.1787
    104  C         41.1570   21.3690   59.1770 C.2   123  HIS123      0.2620
    105  O         41.2730   20.3220   58.5550 O.2   123  HIS123     -0.2715
    106  CB        39.6020   21.5630   61.1120 C.3   123  HIS123      0.0785
    107  CG        39.3670   21.4190   62.5820 C.ar  123  HIS123      0.0821
    108  ND1       39.3130   20.1940   63.2100 N.ar  123  HIS123     -0.2267
    109  CD2       39.2060   22.3470   63.5550 C.ar  123  HIS123      0.1154
    110  CE1       39.1280   20.3720   64.5060 C.ar  123  HIS123      0.1986
    111  NE2       39.0610   21.6700   64.7400 N.ar  123  HIS123     -0.2212
    112  N         41.0970   22.5560   58.5880 N.am  124  ILE124     -0.1977
    113  CA        41.1660   22.7030   57.1420 C.3   124  ILE124      0.1596
    114  C         42.0980   23.8570   56.7970 C.2   124  ILE124      0.2287
    115  O         42.2050   24.8200   57.5490 O.2   124  ILE124     -0.2864
    116  CB        39.7750   23.0160   56.5500 C.3   124  ILE124      0.0276
    117  CG1       38.7470   21.9940   57.0300 C.3   124  ILE124      0.0022
    118  CG2       39.8460   23.0160   55.0300 C.3   124  ILE124      0.0022
    119  CD1       37.3460   22.4590   56.7960 C.3   124  ILE124      0.0001
    120  N         43.6310    8.5010   60.2450 N.3   155  PRO155     -0.2102
    121  CA        42.7600    9.4820   59.5920 C.3   155  PRO155      0.1504
    122  C         42.7240   10.8680   60.2490 C.2   155  PRO155      0.2576
    123  O         42.7580   11.8870   59.5530 O.2   155  PRO155     -0.2718
    124  CB        41.3940    8.7870   59.5950 C.3   155  PRO155      0.0282
    125  CG        41.4560    7.8980   60.8030 C.3   155  PRO155      0.0208
    126  CD        42.8580    7.3350   60.7060 C.3   155  PRO155      0.0893
    127  N         42.6570   10.9080   61.5780 N.am  156  SER156     -0.1953
    128  CA        42.6060   12.1790   62.3020 C.3   156  SER156      0.1924
    129  C         43.9000   12.9680   62.0990 C.2   156  SER156      0.2314
    130  O         44.0080   14.1360   62.4750 O.2   156  SER156     -0.2863
    131  CB        42.3610   11.9320   63.7940 C.3   156  SER156      0.2116
    132  OG        43.4020   11.1580   64.3740 O.3   156  SER156     -0.2180
    133  N         45.1450   13.5280   59.0870 N.3   158  ILE158     -0.1231
    134  CA        44.9760   14.2380   57.8200 C.3   158  ILE158      0.1692
    135  C         44.3700   15.6420   57.9270 C.2   158  ILE158      0.2592
    136  O         43.3190   15.8340   58.5300 O.2   158  ILE158     -0.2718
    137  CB        44.0760   13.4180   56.8690 C.3   158  ILE158      0.0266
    138  CG1       44.7010   12.0450   56.6180 C.3   158  ILE158      0.0019
    139  CG2       43.8310   14.1980   55.5740 C.3   158  ILE158      0.0020
    140  CD1       43.7450   11.0540   55.9640 C.3   158  ILE158      0.0001
    141  N         45.0360   16.6230   57.3330 N.am  159  VAL159     -0.1966
    142  CA        44.5170   17.9800   57.3350 C.3   159  VAL159      0.1712
    143  C         44.1780   18.3090   55.8850 C.2   159  VAL159      0.2458
    144  O         45.0710   18.4980   55.0570 O.2   159  VAL159     -0.2730
    145  CB        45.5490   18.9900   57.8440 C.3   159  VAL159      0.0289
    146  CG1       44.9520   20.3760   57.8250 C.3   159  VAL159      0.0023
    147  CG2       45.9950   18.6160   59.2440 C.3   159  VAL159      0.0023
    148  N         42.8800   18.3590   55.5580 N.am  160  PRO160     -0.2727
    149  CA        42.4270   18.6600   54.1960 C.3   160  PRO160      0.1402
    150  C         43.0050   19.9720   53.6770 C.2   160  PRO160      0.2269
    151  O         43.1440   20.9420   54.4150 O.2   160  PRO160     -0.2865
    152  CB        40.9000   18.7110   54.3370 C.3   160  PRO160      0.0296
    153  CG        40.6310   17.7880   55.4720 C.3   160  PRO160      0.0237
    154  CD        41.7380   18.1150   56.4530 C.3   160  PRO160      0.0939
    155  N         43.7600   15.5870   50.0270 N.3   177  LEU177     -0.1245
    156  CA        43.6680   14.9040   51.3100 C.3   177  LEU177      0.1561
    157  C         44.9870   14.1580   51.4540 C.2   177  LEU177      0.2260
    158  O         45.1100   13.0200   51.0250 O.2   177  LEU177     -0.2867
    159  CB        42.4990   13.9240   51.3190 C.3   177  LEU177      0.0270
    160  CG        41.0900   14.5290   51.3210 C.3   177  LEU177      0.0019
    161  CD1       40.0640   13.4120   51.3780 C.3   177  LEU177      0.0001
    162  CD2       40.9050   15.4350   52.5100 C.3   177  LEU177      0.0001
    163  N         46.1020   10.2940   50.9090 N.3   180  MET180     -0.1245
    164  CA        44.9250    9.5810   50.4210 C.3   180  MET180      0.1570
    165  C         44.6260    9.9340   48.9690 C.2   180  MET180      0.2261
    166  O         44.3250    9.0680   48.1500 O.2   180  MET180     -0.2867
    167  CB        43.6850    9.9220   51.2480 C.3   180  MET180      0.0387
    168  CG        43.6850    9.4020   52.6420 C.3   180  MET180      0.0595
    169  SD        42.0550    9.7050   53.3640 S.3   180  MET180     -0.1393
    170  CE        41.2020    8.1960   52.9570 C.3   180  MET180      0.0692
    171  N         33.5360   20.0130   53.6820 N.3   294  ILE294     -0.1231
    172  CA        34.4520   19.2320   54.5090 C.3   294  ILE294      0.1692
    173  C         34.2450   19.4470   56.0150 C.2   294  ILE294      0.2592
    174  O         34.4480   18.5320   56.8120 O.2   294  ILE294     -0.2718
    175  CB        35.9250   19.5380   54.1510 C.3   294  ILE294      0.0266
    176  CG1       36.1820   19.1510   52.6930 C.3   294  ILE294      0.0019
    177  CG2       36.8600   18.7640   55.0670 C.3   294  ILE294      0.0020
    178  CD1       37.4560   19.7040   52.1230 C.3   294  ILE294      0.0001
    179  N         33.8190   20.6410   56.4040 N.am  295  ALA295     -0.1966
    180  CA        33.6160   20.9320   57.8190 C.3   295  ALA295      0.1728
    181  C         32.3600   20.2850   58.4050 C.2   295  ALA295      0.2617
    182  O         32.4120   19.5990   59.4270 O.2   295  ALA295     -0.2715
    183  CB        33.5670   22.4310   58.0300 C.3   295  ALA295      0.0334
    184  N         31.2320   20.5110   57.7520 N.am  296  THR296     -0.1937
    185  CA        29.9610   19.9780   58.2120 C.3   296  THR296      0.2028
    186  C         29.7520   18.5510   57.7490 C.2   296  THR296      0.2642
    187  O         28.8940   17.8450   58.2630 O.2   296  THR296     -0.2714
    188  CB        28.8220   20.8150   57.6680 C.3   296  THR296      0.1808
    189  OG1       28.8330   20.7460   56.2360 O.3   296  THR296     -0.2208
    190  CG2       28.9940   22.2610   58.1020 C.3   296  THR296      0.0379
    191  N         30.5400   18.1350   56.7690 N.am  297  SER297     -0.1949
    192  CA        30.4220   16.7940   56.2270 C.3   297  SER297      0.1924
    193  C         29.0360   16.6940   55.5980 C.2   297  SER297      0.2314
    194  O         28.4400   15.6250   55.5300 O.2   297  SER297     -0.2863
    195  CB        30.5860   15.7690   57.3460 C.3   297  SER297      0.2116
    196  OG        31.3420   14.6630   56.9030 O.3   297  SER297     -0.2180
    197  N         29.2970   15.5690   49.4750 N.3   300  ILE300     -0.1231
    198  CA        30.5220   14.8740   49.1100 C.3   300  ILE300      0.1678
    199  C         31.4620   15.9010   48.5050 C.2   300  ILE300      0.2434
    200  O         31.0870   16.6470   47.6030 O.2   300  ILE300     -0.2733
    201  CB        30.2450   13.7670   48.0840 C.3   300  ILE300      0.0265
    202  CG1       29.1790   12.8200   48.6370 C.3   300  ILE300      0.0019
    203  CG2       31.5270   13.0150   47.7630 C.3   300  ILE300      0.0020
    204  CD1       28.5610   11.9020   47.5870 C.3   300  ILE300      0.0001
    205  N         32.6990   15.9630   49.0060 N.am  301  PRO301     -0.2729
    206  CA        33.6540   16.9320   48.4720 C.3   301  PRO301      0.1401
    207  C         33.8870   16.7760   46.9830 C.2   301  PRO301      0.2269
    208  O         33.7500   15.6840   46.4370 O.2   301  PRO301     -0.2865
    209  CB        34.9150   16.6460   49.2750 C.3   301  PRO301      0.0296
    210  CG        34.3620   16.2350   50.6010 C.3   301  PRO301      0.0237
    211  CD        33.2430   15.2960   50.2010 C.3   301  PRO301      0.0939
@<TRIPOS>BOND
     1   208   207    2
     2   207   206    1
     3   204   202    1
     4   200   199    2
     5   203   201    1
     6   201   202    1
     7   201   198    1
     8   166   165    2
     9   206   205    1
    10   206   209    1
    11   199   205   am
    12   199   198    1
    13   165   164    1
    14   205   211    1
    15   198   197    1
    16   209   210    1
    17   155   156    1
    18   211   210    1
    19   164   163    1
    20   164   167    1
    21   158   157    2
    22   167   168    1
    23   156   159    1
    24   156   157    1
    25   159   160    1
    26   160   161    1
    27   160   162    1
    28    17    16    1
    29    17    11    1
    30    16    15    1
    31   178   176    1
    32     1     2    1
    33     2     5    1
    34     2     3    1
    35   168   169    1
    36   176   175    1
    37   170   169    1
    38     5     6    1
    39    11     3   am
    40    11    12    1
    41     7     6   ar
    42     7     9   ar
    43     3     4    2
    44     6     8   ar
    45    15    12    1
    46     9    10   ar
    47   150   149    1
    48   150   151    2
    49   171   172    1
    50    12    13    1
    51   175   172    1
    52   175   177    1
    53     8    10   ar
    54   149   152    1
    55   149   148    1
    56   152   153    1
    57   172   173    1
    58   118   116    1
    59   144   143    2
    60    13    18   am
    61    13    14    2
    62   153   154    1
    63   194   193    2
    64   148   143   am
    65   148   154    1
    66   139   137    1
    67   193   192    1
    68   143   142    1
    69    18    19    1
    70   140   138    1
    71   173   179   am
    72   173   174    2
    73   192   191    1
    74   192   195    1
    75   189   188    1
    76   179   180    1
    77   116   117    1
    78   116   113    1
    79   138   137    1
    80   191   186   am
    81   119   117    1
    82   114   113    1
    83   114   115    2
    84    25    23   ar
    85   137   134    1
    86   196   195    1
    87   113   112    1
    88   141   142    1
    89   141   135   am
    90   142   145    1
    91    19    22    1
    92    19    20    1
    93    23    22    1
    94    23    24   ar
    95   188   190    1
    96   188   185    1
    97   186   185    1
    98   186   187    2
    99   184   185    1
   100   184   181   am
   101   180   183    1
   102   180   181    1
   103   134   135    1
   104   134   133    1
   105   146   145    1
   106   145   147    1
   107   135   136    2
   108    20    21    2
   109   181   182    2
   110   105   104    2
   111   112   104   am
   112   104   103    1
   113   123   122    2
   114   121   124    1
   115   121   120    1
   116   121   122    1
   117   124   125    1
   118   120   126    1
   119   122   127   am
   120    70    69    1
   121   103   106    1
   122   103   102    1
   123   126   125    1
   124    46    45    1
   125    95    96    1
   126    95    92    1
   127   106   107    1
   128   102    93   am
   129    96    97   ar
   130    96    98   ar
   131    97    99   ar
   132    94    93    2
   133    93    92    1
   134   127   128    1
   135    69    66    1
   136    98   100   ar
   137    99   101   ar
   138    45    42    1
   139    44    43    2
   140    92    91    1
   141   129   128    1
   142   129   130    2
   143   100   101   ar
   144    56    54   ar
   145    56    57   ar
   146   128   131    1
   147    68    67    2
   148    43    42    1
   149   107   108   ar
   150   107   109   ar
   151    71    72    1
   152    54    52   ar
   153    67    66    1
   154    91    84   am
   155    66    65    1
   156    42    41    1
   157    26    27    1
   158    29    28    2
   159   108   110   ar
   160    72    73    1
   161    72    75    1
   162    57    55   ar
   163   109   111   ar
   164    81    79    1
   165    50    49    2
   166   131   132    1
   167    49    48    1
   168    73    74    2
   169    73    82   am
   170    65    60   am
   171    52    51    1
   172    52    53   ar
   173    41    34   am
   174    28    27    1
   175    75    76    1
   176    84    85    2
   177    84    83    1
   178    27    30    1
   179    82    83    1
   180    79    80    1
   181    79    78    2
   182    51    48    1
   183   110   111   ar
   184    55    53   ar
   185    31    30    1
   186    78    77    1
   187    76    77    1
   188    48    47    1
   189    83    86    1
   190    60    61    2
   191    60    59    1
   192    34    35    2
   193    34    33    1
   194    86    87    1
   195    32    33    1
   196    58    59    1
   197    59    62    1
   198    87    88    1
   199    33    36    1
   200    89    88    2
   201    62    64    1
   202    62    63    1
   203    88    90   am
   204    36    37    1
   205    37    38    1
   206    39    38   ar
   207    38    40   ar
