@<TRIPOS>MOLECULE
tmp/1ttiA00.pdb
 98 92 0 0 0
SMALL
GASTEIGER

@<TRIPOS>ATOM
      1  N         22.3610    5.5670   43.0290 N.3    10  ASN10      -0.1240
      2  CA        23.3920    4.8880   42.2820 C.3    10  ASN10       0.1653
      3  C         23.7020    5.6680   41.0180 C.2    10  ASN10       0.2266
      4  O         22.9610    5.6300   40.0660 O.2    10  ASN10      -0.2867
      5  CB        22.9790    3.4600   41.9500 C.3    10  ASN10       0.1155
      6  CG        24.1750    2.6190   41.6620 C.2    10  ASN10       0.2627
      7  OD1       25.3240    3.1290   42.1220 O.2    10  ASN10      -0.2716
      8  ND2       24.0710    1.5760   40.9780 N.am   10  ASN10      -0.0877
      9  N         25.5220    6.1960   37.9790 N.3    12  LYS12      -0.1245
     10  CA        26.2130    5.4490   36.9480 C.3    12  LYS12       0.1561
     11  C         26.9910    6.2390   35.8350 C.2    12  LYS12       0.2260
     12  O         26.4590    6.7550   34.8350 O.2    12  LYS12      -0.2867
     13  CB        25.3370    4.3160   36.5030 C.3    12  LYS12       0.0271
     14  CG        25.5050    3.1490   37.4170 C.3    12  LYS12       0.0035
     15  CD        24.2110    2.7930   38.0910 C.3    12  LYS12       0.0206
     16  CE        23.4210    1.7510   37.3020 C.3    12  LYS12       0.1093
     17  NZ        22.0760    2.1750   36.8350 N.3    12  LYS12      -0.1314
     18  N         27.0290   -5.2030   42.6280 N.3    81  HIS81      -0.1241
     19  CA        26.1370   -4.6550   41.6150 C.3    81  HIS81       0.1621
     20  C         26.2240   -5.4110   40.2920 C.2    81  HIS81       0.2264
     21  O         27.2850   -5.8770   39.8880 O.2    81  HIS81      -0.2867
     22  CB        26.3870   -3.1650   41.4110 C.3    81  HIS81       0.0745
     23  CG        25.2020   -2.5330   40.8200 C.ar   81  HIS81       0.0817
     24  ND1       24.9740   -2.5900   39.4590 N.ar   81  HIS81      -0.2268
     25  CD2       24.1490   -1.8550   41.4220 C.ar   81  HIS81       0.1154
     26  CE1       23.7740   -1.9600   39.2510 C.ar   81  HIS81       0.1986
     27  NE2       23.2700   -1.4820   40.4220 N.ar   81  HIS81      -0.2212
     28  N         17.5830   -6.4340   43.8640 N.3   153  GLU153     -0.1245
     29  CA        17.1900   -5.8680   42.6030 C.3   153  GLU153      0.1567
     30  C         17.1680   -6.9530   41.5320 C.2   153  GLU153      0.2260
     31  O         18.2630   -7.3940   41.1650 O.2   153  GLU153     -0.2867
     32  CB        18.2540   -4.8550   42.1170 C.3   153  GLU153      0.0388
     33  CG        18.9210   -3.9470   43.1530 C.3   153  GLU153      0.1160
     34  CD        19.8210   -2.9230   42.4430 C.2   153  GLU153      0.3649
     35  OE1       20.9920   -3.1380   42.1320 O.co2 153  GLU153     -0.2457
     36  OE2       19.2100   -1.8490   42.0640 O.co2 153  GLU153     -0.2457
     37  N         15.0020   -5.8540   35.9800 N.3   157  ALA157     -0.1231
     38  CA        14.2600   -4.6430   36.3480 C.3   157  ALA157      0.1694
     39  C         15.2140   -3.4640   36.4270 C.2   157  ALA157      0.2592
     40  O         14.8080   -2.3240   36.7040 O.2   157  ALA157     -0.2718
     41  CB        13.5800   -4.8200   37.6910 C.3   157  ALA157      0.0304
     42  N         16.5070   -3.7400   36.2240 N.am  158  ILE158     -0.1966
     43  CA        17.4740   -2.6870   36.3010 C.3   158  ILE158      0.1727
     44  C         17.6030   -1.8530   35.0370 C.2   158  ILE158      0.2616
     45  O         18.3480   -2.1880   34.1250 O.2   158  ILE158     -0.2715
     46  CB        18.8510   -3.1400   36.7350 C.3   158  ILE158      0.0290
     47  CG1       18.8240   -3.7510   38.1320 C.3   158  ILE158      0.0022
     48  CG2       19.7610   -1.8900   36.7430 C.3   158  ILE158      0.0023
     49  CD1       20.0280   -4.6700   38.3740 C.3   158  ILE158      0.0001
     50  N         16.9660   -0.6890   35.0420 N.am  159  GLY159     -0.1955
     51  CA        17.0670    0.2490   33.9450 C.3   159  GLY159      0.1869
     52  C         16.2450   -0.1850   32.7570 C.2   159  GLY159      0.2309
     53  O         16.3610    0.3770   31.6790 O.2   159  GLY159     -0.2863
     54  N         15.4130   -1.3670   41.1970 N.3   198  GLY198     -0.1210
     55  CA        15.0300   -1.8670   39.9230 C.3   198  GLY198      0.1956
     56  C         13.8670   -1.1540   39.3590 C.2   198  GLY198      0.2613
     57  O         12.7240   -1.6000   39.4870 O.2   198  GLY198     -0.2717
     58  N         14.1730   -0.0810   38.6710 N.am  199  SER199     -0.1938
     59  CA        13.1660    0.8030   38.0270 C.3   199  SER199      0.2055
     60  C         12.2600    1.6750   38.9670 C.2   199  SER199      0.2642
     61  O         11.1570    2.1530   38.5690 O.2   199  SER199     -0.2714
     62  CB        12.5670    0.3110   36.6810 C.3   199  SER199      0.2130
     63  OG        13.6230   -0.0190   35.7660 O.3   199  SER199     -0.2179
     64  N         12.7980    1.9570   40.1900 N.am  200  VAL200     -0.1977
     65  CA        12.1070    2.7950   41.1430 C.3   200  VAL200      0.1596
     66  C         11.9970    4.2200   40.6620 C.2   200  VAL200      0.2287
     67  O         12.9560    4.8260   40.2950 O.2   200  VAL200     -0.2864
     68  CB        12.6270    2.7430   42.5830 C.3   200  VAL200      0.0276
     69  CG1       11.6930    3.5730   43.4870 C.3   200  VAL200      0.0022
     70  CG2       12.5860    1.3100   43.0750 C.3   200  VAL200      0.0022
     71  N         17.1440    1.6860   46.0900 N.3   218  LEU218     -0.1231
     72  CA        18.3910    1.8680   45.3660 C.3   218  LEU218      0.1693
     73  C         18.0400    2.2190   43.9230 C.2   218  LEU218      0.2592
     74  O         17.3930    1.4320   43.1630 O.2   218  LEU218     -0.2718
     75  CB        19.4930    0.8430   45.6270 C.3   218  LEU218      0.0284
     76  CG        20.6820    0.9930   44.6910 C.3   218  LEU218      0.0019
     77  CD1       21.4560    2.2640   45.0030 C.3   218  LEU218      0.0001
     78  CD2       21.6000   -0.2140   44.8180 C.3   218  LEU218      0.0001
     79  N         18.3210    3.5100   43.6380 N.am  219  VAL219     -0.1966
     80  CA        17.8370    4.1960   42.4720 C.3   219  VAL219      0.1727
     81  C         18.9020    4.6630   41.5130 C.2   219  VAL219      0.2617
     82  O         19.7600    5.4920   41.8110 O.2   219  VAL219     -0.2715
     83  CB        16.8820    5.3490   42.9340 C.3   219  VAL219      0.0290
     84  CG1       15.9580    5.8010   41.7920 C.3   219  VAL219      0.0023
     85  CG2       16.0630    4.9040   44.1740 C.3   219  VAL219      0.0023
     86  N         18.8200    4.1940   40.2990 N.am  220  GLY220     -0.1940
     87  CA        19.7700    4.6210   39.3150 C.3   220  GLY220      0.2014
     88  C         19.2990    5.9130   38.6350 C.2   220  GLY220      0.2639
     89  O         19.6690    6.9970   39.0680 O.2   220  GLY220     -0.2714
     90  N         18.3950    5.7420   37.6290 N.am  221  GLY221     -0.1939
     91  CA        17.8230    6.7560   36.7320 C.3   221  GLY221      0.2014
     92  C         17.1090    7.9450   37.3840 C.2   221  GLY221      0.2638
     93  O         17.3390    9.0970   37.0010 O.2   221  GLY221     -0.2714
     94  N         16.1690    7.6430   38.2650 N.am  222  ALA222     -0.1977
     95  CA        15.4040    8.6760   38.9260 C.3   222  ALA222      0.1597
     96  C         16.1870    9.3060   40.0140 C.2   222  ALA222      0.2287
     97  O         15.6530   10.0620   40.7890 O.2   222  ALA222     -0.2864
     98  CB        14.2020    8.0610   39.5430 C.3   222  ALA222      0.0319
@<TRIPOS>BOND
     1    53    52    2
     2    52    51    1
     3    51    50    1
     4    45    44    2
     5    12    11    2
     6    44    50   am
     7    44    43    1
     8    63    62    1
     9    11    10    1
    10    37    38    1
    11    42    43    1
    12    42    39   am
    13    43    46    1
    14    38    39    1
    15    38    41    1
    16    39    40    2
    17    13    10    1
    18    13    14    1
    19    62    59    1
    20    91    92    1
    21    91    90    1
    22    46    48    1
    23    46    47    1
    24    17    16    1
    25    10     9    1
    26    93    92    2
    27    16    15    1
    28    92    94   am
    29    14    15    1
    30    90    88   am
    31    59    58    1
    32    59    60    1
    33    47    49    1
    34    94    95    1
    35    61    60    2
    36    88    89    2
    37    88    87    1
    38    58    56   am
    39    95    98    1
    40    95    96    1
    41    60    64   am
    42    26    24   ar
    43    26    27   ar
    44    87    86    1
    45    56    57    2
    46    56    55    1
    47    24    23   ar
    48    21    20    2
    49    55    54    1
    50    96    97    2
    51     4     3    2
    52    64    65    1
    53    20    19    1
    54    67    66    2
    55    86    81   am
    56    27    25   ar
    57    66    65    1
    58    23    22    1
    59    23    25   ar
    60     8     6   am
    61     3     2    1
    62    65    68    1
    63    31    30    2
    64    22    19    1
    65    81    82    2
    66    81    80    1
    67    30    29    1
    68    19    18    1
    69     6     5    1
    70     6     7    2
    71    84    83    1
    72     5     2    1
    73    36    34   ar
    74    32    29    1
    75    32    33    1
    76    35    34   ar
    77     2     1    1
    78    34    33    1
    79    80    83    1
    80    80    79    1
    81    68    70    1
    82    68    69    1
    83    29    28    1
    84    83    85    1
    85    74    73    2
    86    79    73   am
    87    73    72    1
    88    76    78    1
    89    76    77    1
    90    76    75    1
    91    72    75    1
    92    72    71    1
