@<TRIPOS>MOLECULE
tmp/1ttjA00.pdb
 89 84 0 0 0
SMALL
GASTEIGER

@<TRIPOS>ATOM
      1  N          8.7910   -3.7410   10.7320 N.3    10  ASN10      -0.1240
      2  CA         9.4580   -3.5340    9.4870 C.3    10  ASN10       0.1653
      3  C          8.6900   -4.1550    8.3280 C.2    10  ASN10       0.2266
      4  O          8.8290   -5.3060    8.0530 O.2    10  ASN10      -0.2867
      5  CB        10.8690   -4.1280    9.5970 C.3    10  ASN10       0.1155
      6  CG        11.8160   -3.4600    8.6450 C.2    10  ASN10       0.2627
      7  OD1       11.4130   -2.5570    7.8910 O.2    10  ASN10      -0.2716
      8  ND2       13.0660   -3.8910    8.6660 N.am   10  ASN10      -0.0877
      9  N         19.7960   -1.0340    6.8980 N.3    80  HIS80      -0.1241
     10  CA        19.2380   -2.3710    6.9900 C.3    80  HIS80       0.1621
     11  C         20.0550   -3.3340    6.1180 C.2    80  HIS80       0.2264
     12  O         20.5440   -2.9630    5.0180 O.2    80  HIS80      -0.2867
     13  CB        17.7180   -2.4490    6.7130 C.3    80  HIS80       0.0745
     14  CG        17.0600   -3.5910    7.4560 C.ar   80  HIS80       0.0817
     15  ND1       16.6770   -4.7730    6.8130 N.ar   80  HIS80      -0.2268
     16  CD2       16.7140   -3.7020    8.7870 C.ar   80  HIS80       0.1154
     17  CE1       16.1290   -5.5500    7.7420 C.ar   80  HIS80       0.1986
     18  NE2       16.1380   -4.9310    8.9400 N.ar   80  HIS80      -0.2212
     19  N         21.2670   -6.2750   14.7260 N.3   152  GLU152     -0.1245
     20  CA        20.6190   -7.4100   14.0480 C.3   152  GLU152      0.1567
     21  C         21.6060   -8.4020   13.3870 C.2   152  GLU152      0.2260
     22  O         22.1300   -8.1320   12.3180 O.2   152  GLU152     -0.2867
     23  CB        19.6570   -6.9280   12.9490 C.3   152  GLU152      0.0388
     24  CG        18.5920   -5.9010   13.3570 C.3   152  GLU152      0.1160
     25  CD        17.4630   -5.8010   12.3300 C.2   152  GLU152      0.3649
     26  OE1       17.5910   -5.2750   11.2360 O.co2 152  GLU152     -0.2457
     27  OE2       16.3150   -6.2950   12.7620 O.co2 152  GLU152     -0.2457
     28  N         20.2970  -13.9890   11.6880 N.3   156  ALA156     -0.1231
     29  CA        19.0490  -14.1580   12.3940 C.3   156  ALA156      0.1694
     30  C         17.8720  -13.5170   11.6840 C.2   156  ALA156      0.2592
     31  O         16.7220  -13.7210   12.0510 O.2   156  ALA156     -0.2718
     32  CB        19.1790  -13.6870   13.8390 C.3   156  ALA156      0.0304
     33  N         18.1630  -12.7280   10.6690 N.am  157  ILE157     -0.1966
     34  CA        17.1270  -12.0220    9.9550 C.3   157  ILE157      0.1727
     35  C         16.3080  -12.8540    8.9750 C.2   157  ILE157      0.2616
     36  O         16.7310  -13.1580    7.8460 O.2   157  ILE157     -0.2715
     37  CB        17.7150  -10.8140    9.2610 C.3   157  ILE157      0.0290
     38  CG1       18.2950   -9.8320   10.2690 C.3   157  ILE157      0.0022
     39  CG2       16.6630  -10.1130    8.4070 C.3   157  ILE157      0.0023
     40  CD1       18.8140   -8.5700    9.5620 C.3   157  ILE157      0.0001
     41  N         15.0940  -13.1810    9.3710 N.am  158  GLY158     -0.1955
     42  CA        14.1860  -13.9250    8.4810 C.3   158  GLY158      0.1869
     43  C         14.4520  -15.4220    8.3910 C.2   158  GLY158      0.2309
     44  O         13.7310  -16.1210    7.7140 O.2   158  GLY158     -0.2863
     45  N         15.7930   -9.7310   14.5080 N.3   197  GLY197     -0.1210
     46  CA        16.1900  -10.9770   13.8950 C.3   197  GLY197      0.1956
     47  C         15.4350  -12.1520   14.4830 C.2   197  GLY197      0.2613
     48  O         15.8160  -12.7080   15.5220 O.2   197  GLY197     -0.2717
     49  N         14.3490  -12.4860   13.8090 N.am  198  SER198     -0.1938
     50  CA        13.4680  -13.5950   14.1580 C.3   198  SER198      0.2055
     51  C         12.8160  -13.5080   15.5030 C.2   198  SER198      0.2642
     52  O         12.5070  -14.5290   16.1230 O.2   198  SER198     -0.2714
     53  CB        14.0430  -14.9680   13.9250 C.3   198  SER198      0.2130
     54  OG        14.5680  -15.0170   12.6440 O.3   198  SER198     -0.2179
     55  N         12.5640  -12.3060   15.9480 N.am  199  VAL199     -0.1977
     56  CA        11.8610  -12.1870   17.1810 C.3   199  VAL199      0.1596
     57  C         10.4390  -12.6510   16.9190 C.2   199  VAL199      0.2287
     58  O          9.9000  -12.4050   15.8420 O.2   199  VAL199     -0.2864
     59  CB        11.7790  -10.7300   17.6330 C.3   199  VAL199      0.0276
     60  CG1       10.9390  -10.6510   18.9090 C.3   199  VAL199      0.0022
     61  CG2       13.1690  -10.1180   17.8520 C.3   199  VAL199      0.0022
     62  N         13.2010   -4.8000   16.5420 N.3   217  LEU217     -0.1231
     63  CA        12.9760   -4.5220   15.1520 C.3   217  LEU217      0.1693
     64  C         12.4640   -5.8550   14.6100 C.2   217  LEU217      0.2592
     65  O         13.1820   -6.8660   14.6160 O.2   217  LEU217     -0.2718
     66  CB        14.2390   -4.0210   14.4400 C.3   217  LEU217      0.0284
     67  CG        13.9840   -3.5210   13.0210 C.3   217  LEU217      0.0019
     68  CD1       12.6310   -2.8020   12.9210 C.3   217  LEU217      0.0001
     69  CD2       15.1160   -2.5810   12.6380 C.3   217  LEU217      0.0001
     70  N         11.1950   -5.8760   14.2410 N.am  218  VAL218     -0.1966
     71  CA        10.5090   -7.0960   13.8450 C.3   218  VAL218      0.1727
     72  C         10.0060   -7.1320   12.4310 C.2   218  VAL218      0.2617
     73  O          9.1910   -6.3230   12.0180 O.2   218  VAL218     -0.2715
     74  CB         9.3340   -7.3460   14.8190 C.3   218  VAL218      0.0290
     75  CG1        8.6850   -8.7150   14.6120 C.3   218  VAL218      0.0023
     76  CG2        9.8110   -7.1980   16.2640 C.3   218  VAL218      0.0023
     77  N         10.4210   -8.1430   11.7120 N.am  219  GLY219     -0.1940
     78  CA         9.9600   -8.2890   10.3650 C.3   219  GLY219      0.2014
     79  C          8.7010   -9.1830   10.2360 C.2   219  GLY219      0.2639
     80  O          7.5830   -8.6970   10.1980 O.2   219  GLY219     -0.2714
     81  N          8.9250  -10.5050   10.1620 N.am  220  GLY220     -0.1939
     82  CA         7.9060  -11.5210    9.9430 C.3   220  GLY220      0.2014
     83  C          6.7670  -11.5200   10.9270 C.2   220  GLY220      0.2638
     84  O          5.6010  -11.5200   10.5330 O.2   220  GLY220     -0.2714
     85  N          7.1230  -11.5730   12.2020 N.am  221  ALA221     -0.1977
     86  CA         6.1420  -11.5810   13.2530 C.3   221  ALA221      0.1597
     87  C          5.2810  -10.2880   13.2690 C.2   221  ALA221      0.2287
     88  O          4.2020  -10.2640   13.8690 O.2   221  ALA221     -0.2864
     89  CB         6.7890  -11.9040   14.6000 C.3   221  ALA221      0.0319
@<TRIPOS>BOND
     1    12    11    2
     2    11    10    1
     3    13    10    1
     4    13    14    1
     5    15    14   ar
     6    15    17   ar
     7     9    10    1
     8    14    16   ar
     9    44    43    2
    10    17    18   ar
    11    36    35    2
    12     7     6    2
    13     4     3    2
    14     3     2    1
    15    43    42    1
    16    39    37    1
    17    42    41    1
    18     6     8   am
    19     6     5    1
    20    16    18   ar
    21    35    41   am
    22    35    34    1
    23    37    34    1
    24    37    38    1
    25     2     5    1
    26     2     1    1
    27    40    38    1
    28    82    81    1
    29    82    83    1
    30    34    33    1
    31    81    79   am
    32    80    79    2
    33    79    78    1
    34    78    77    1
    35    84    83    2
    36    33    30   am
    37    83    85   am
    38    26    25   ar
    39    30    31    2
    40    30    29    1
    41    28    29    1
    42    77    72   am
    43    73    72    2
    44    85    86    1
    45    22    21    2
    46    25    27   ar
    47    25    24    1
    48    29    32    1
    49    72    71    1
    50    69    67    1
    51    54    53    1
    52    68    67    1
    53    23    24    1
    54    23    20    1
    55    67    66    1
    56    86    87    1
    57    86    89    1
    58    87    88    2
    59    21    20    1
    60    49    50    1
    61    49    47   am
    62    71    70    1
    63    71    74    1
    64    46    47    1
    65    46    45    1
    66    53    50    1
    67    20    19    1
    68    50    51    1
    69    70    64   am
    70    66    63    1
    71    47    48    2
    72    64    65    2
    73    64    63    1
    74    75    74    1
    75    74    76    1
    76    63    62    1
    77    51    55   am
    78    51    52    2
    79    58    57    2
    80    55    56    1
    81    57    56    1
    82    56    59    1
    83    59    61    1
    84    59    60    1
