@<TRIPOS>MOLECULE
tmp/1ttmA00.pdb
 143 140 0 0 0
SMALL
GASTEIGER

@<TRIPOS>ATOM
      1  N         12.0600   34.4220   21.3700 N.3    89  ILE89      -0.1231
      2  CA        12.9350   35.4510   20.8160 C.3    89  ILE89       0.1692
      3  C         13.2400   35.2550   19.3230 C.2    89  ILE89       0.2591
      4  O         13.3380   36.2260   18.5760 O.2    89  ILE89      -0.2718
      5  CB        14.2650   35.5480   21.6090 C.3    89  ILE89       0.0266
      6  CG1       15.1410   36.6550   21.0210 C.3    89  ILE89       0.0019
      7  CG2       14.9890   34.2160   21.5890 C.3    89  ILE89       0.0020
      8  CD1       16.4420   36.8780   21.7760 C.3    89  ILE89       0.0001
      9  N         13.3780   34.0050   18.8890 N.am   90  GLN90      -0.1979
     10  CA        13.6680   33.7220   17.4820 C.3    90  GLN90       0.1601
     11  C         13.6000   32.2360   17.2000 C.2    90  GLN90       0.2287
     12  O         13.5450   31.4250   18.1220 O.2    90  GLN90      -0.2864
     13  CB        15.0740   34.2170   17.1160 C.3    90  GLN90       0.0394
     14  CG        16.2050   33.5040   17.8670 C.3    90  GLN90       0.0908
     15  CD        16.8970   32.4080   17.0510 C.2    90  GLN90       0.2608
     16  OE1       16.2910   31.4000   16.6860 O.2    90  GLN90      -0.2717
     17  NE2       18.1780   32.6070   16.7710 N.am   90  GLN90      -0.0878
     18  N         15.0530   29.1780   14.1100 N.3    92  HIS92      -0.1241
     19  CA        15.9120   28.8830   12.9680 C.3    92  HIS92       0.1621
     20  C         15.8620   27.3820   12.7150 C.2    92  HIS92       0.2264
     21  O         15.2350   26.6450   13.4750 O.2    92  HIS92      -0.2867
     22  CB        17.3490   29.2920   13.2730 C.3    92  HIS92       0.0745
     23  CG        17.9030   28.6430   14.5010 C.ar   92  HIS92       0.0817
     24  ND1       17.6950   29.1470   15.7680 N.ar   92  HIS92      -0.2268
     25  CD2       18.6050   27.4990   14.6620 C.ar   92  HIS92       0.1154
     26  CE1       18.2440   28.3390   16.6560 C.ar   92  HIS92       0.1986
     27  NE2       18.8020   27.3310   16.0120 N.ar   92  HIS92      -0.2212
     28  N         18.0920   23.6810   11.0670 N.3    94  HIS94      -0.1241
     29  CA        19.3660   23.0150   10.7990 C.3    94  HIS94       0.1621
     30  C         18.9490   21.9970    9.7400 C.2    94  HIS94       0.2264
     31  O         17.9050   21.3690    9.8830 O.2    94  HIS94      -0.2867
     32  CB        19.8910   22.2830   12.0360 C.3    94  HIS94       0.0745
     33  CG        20.2830   23.1920   13.1610 C.ar   94  HIS94       0.0817
     34  ND1       21.5480   23.7320   13.2830 N.ar   94  HIS94      -0.2268
     35  CD2       19.5750   23.6540   14.2170 C.ar   94  HIS94       0.1154
     36  CE1       21.6000   24.4850   14.3660 C.ar   94  HIS94       0.1986
     37  NE2       20.4180   24.4540   14.9510 N.ar   94  HIS94      -0.2212
     38  N         14.1290   24.9510   15.5710 N.3   117  HIS117     -0.1241
     39  CA        14.3830   25.3570   16.9530 C.3   117  HIS117      0.1621
     40  C         13.7530   26.7070   17.2860 C.2   117  HIS117      0.2264
     41  O         14.0790   27.7230   16.6730 O.2   117  HIS117     -0.2867
     42  CB        15.8920   25.4410   17.2180 C.3   117  HIS117      0.0745
     43  CG        16.5720   24.1070   17.2780 C.ar  117  HIS117      0.0817
     44  ND1       17.9400   23.9640   17.1960 N.ar  117  HIS117     -0.2268
     45  CD2       16.0710   22.8550   17.4140 C.ar  117  HIS117      0.1154
     46  CE1       18.2550   22.6830   17.2730 C.ar  117  HIS117      0.1986
     47  NE2       17.1390   21.9890   17.4060 N.ar  117  HIS117     -0.2212
     48  N         13.5660   29.3500   20.0960 N.3   119  VAL119     -0.1245
     49  CA        14.3090   29.7430   21.2920 C.3   119  VAL119      0.1561
     50  C         13.5590   30.7170   22.1970 C.2   119  VAL119      0.2260
     51  O         13.0540   31.7340   21.7290 O.2   119  VAL119     -0.2867
     52  CB        15.6680   30.3820   20.8910 C.3   119  VAL119      0.0252
     53  CG1       16.5320   30.6080   22.1260 C.3   119  VAL119      0.0019
     54  CG2       16.3860   29.4860   19.8810 C.3   119  VAL119      0.0019
     55  N         17.5080   38.4790   27.8710 N.3   128  PHE128     -0.1241
     56  CA        18.1320   37.3320   27.2370 C.3   128  PHE128      0.1605
     57  C         19.5880   37.1560   27.6640 C.2   128  PHE128      0.2264
     58  O         20.0280   36.0470   27.9720 O.2   128  PHE128     -0.2867
     59  CB        18.0750   37.4940   25.7190 C.3   128  PHE128      0.0534
     60  CG        18.8610   36.4640   24.9820 C.ar  128  PHE128     -0.0203
     61  CD1       18.2880   35.2460   24.6350 C.ar  128  PHE128     -0.0042
     62  CD2       20.2000   36.6850   24.6860 C.ar  128  PHE128     -0.0042
     63  CE1       19.0400   34.2600   24.0070 C.ar  128  PHE128     -0.0003
     64  CE2       20.9550   35.7100   24.0650 C.ar  128  PHE128     -0.0003
     65  CZ        20.3770   34.4920   23.7220 C.ar  128  PHE128     -0.0000
     66  N         21.2470   33.3720   29.6630 N.3   132  VAL132     -0.1245
     67  CA        22.2200   32.4010   29.1640 C.3   132  VAL132      0.1561
     68  C         23.3020   32.0390   30.1730 C.2   132  VAL132      0.2260
     69  O         24.0490   31.0810   29.9760 O.2   132  VAL132     -0.2867
     70  CB        22.8970   32.9030   27.8680 C.3   132  VAL132      0.0252
     71  CG1       21.8520   33.1110   26.7930 C.3   132  VAL132      0.0019
     72  CG2       23.6480   34.1930   28.1320 C.3   132  VAL132      0.0019
     73  N         14.4380   25.5840   24.5720 N.3   140  VAL140     -0.1245
     74  CA        14.3350   25.4820   23.1270 C.3   140  VAL140      0.1561
     75  C         13.3710   24.3640   22.7820 C.2   140  VAL140      0.2260
     76  O         13.4830   23.2400   23.2810 O.2   140  VAL140     -0.2867
     77  CB        15.6950   25.2000   22.4500 C.3   140  VAL140      0.0252
     78  CG1       15.5080   25.1320   20.9300 C.3   140  VAL140      0.0019
     79  CG2       16.6930   26.2940   22.8010 C.3   140  VAL140      0.0019
     80  N         22.4110   22.0080   26.2780 N.3   194  SER194     -0.1202
     81  CA        23.1200   23.2290   25.9230 C.3   194  SER194      0.2020
     82  C         22.7530   23.7640   24.5530 C.2   194  SER194      0.2619
     83  O         21.9710   23.1690   23.8200 O.2   194  SER194     -0.2717
     84  CB        24.6220   22.9490   25.8920 C.3   194  SER194      0.2103
     85  OG        24.9250   22.0960   24.7890 O.3   194  SER194     -0.2182
     86  N         23.3610   24.8950   24.2100 N.am  195  LEU195     -0.1965
     87  CA        23.1860   25.4850   22.8930 C.3   195  LEU195      0.1728
     88  C         23.9870   24.5200   22.0130 C.2   195  LEU195      0.2617
     89  O         24.9310   23.8880   22.5010 O.2   195  LEU195     -0.2715
     90  CB        23.8110   26.8810   22.8480 C.3   195  LEU195      0.0311
     91  CG        23.1840   27.9600   23.7400 C.3   195  LEU195      0.0022
     92  CD1       23.9980   29.2360   23.6350 C.3   195  LEU195      0.0001
     93  CD2       21.7480   28.2180   23.3150 C.3   195  LEU195      0.0001
     94  N         23.6170   24.3860   20.7410 N.am  196  THR196     -0.1937
     95  CA        24.3190   23.4670   19.8500 C.3   196  THR196      0.2028
     96  C         25.3710   24.1300   18.9700 C.2   196  THR196      0.2643
     97  O         26.0010   23.4730   18.1410 O.2   196  THR196     -0.2714
     98  CB        23.3330   22.6760   18.9640 C.3   196  THR196      0.1808
     99  OG1       22.6270   23.5730   18.0990 O.3   196  THR196     -0.2208
    100  CG2       22.3320   21.9210   19.8410 C.3   196  THR196      0.0379
    101  N         25.5510   25.4360   19.1340 N.am  197  THR197     -0.1937
    102  CA        26.5910   26.1450   18.4010 C.3   197  THR197      0.2013
    103  C         27.3380   26.9360   19.4650 C.2   197  THR197      0.2484
    104  O         26.8390   27.1130   20.5750 O.2   197  THR197     -0.2729
    105  CB        26.0480   27.1630   17.3650 C.3   197  THR197      0.1807
    106  OG1       25.6290   28.3570   18.0390 O.3   197  THR197     -0.2208
    107  CG2       24.8790   26.5760   16.5790 C.3   197  THR197      0.0379
    108  N         28.5580   27.3900   19.1570 N.am  198  PRO198     -0.2715
    109  CA        29.3020   28.1680   20.1500 C.3   198  PRO198      0.1521
    110  C         28.4070   29.3410   20.5480 C.2   198  PRO198      0.2440
    111  O         27.6460   29.8460   19.7160 O.2   198  PRO198     -0.2731
    112  CB        30.5330   28.6150   19.3730 C.3   198  PRO198      0.0310
    113  CG        30.7690   27.4580   18.4550 C.3   198  PRO198      0.0237
    114  CD        29.3820   27.1230   17.9660 C.3   198  PRO198      0.0939
    115  N         28.5200   29.8290   21.7960 N.am  199  PRO199     -0.2727
    116  CA        29.3950   29.4090   22.8980 C.3   199  PRO199      0.1402
    117  C         29.0880   28.0850   23.6050 C.2   199  PRO199      0.2269
    118  O         29.7770   27.7200   24.5600 O.2   199  PRO199     -0.2865
    119  CB        29.3380   30.6040   23.8460 C.3   199  PRO199      0.0296
    120  CG        27.9310   31.0660   23.6890 C.3   199  PRO199      0.0237
    121  CD        27.7400   31.0170   22.1830 C.3   199  PRO199      0.0939
    122  N         26.8250   27.2000   25.7110 N.3   201  LEU201     -0.1245
    123  CA        26.4940   27.3200   27.1290 C.3   201  LEU201      0.1561
    124  C         25.4550   26.2780   27.5550 C.2   201  LEU201      0.2260
    125  O         24.4940   26.0170   26.8300 O.2   201  LEU201     -0.2867
    126  CB        25.9820   28.7320   27.4210 C.3   201  LEU201      0.0270
    127  CG        26.9830   29.8550   27.1250 C.3   201  LEU201      0.0019
    128  CD1       26.3190   31.2070   27.3450 C.3   201  LEU201      0.0001
    129  CD2       28.2070   29.7030   28.0190 C.3   201  LEU201      0.0001
    130  N         15.7940   21.3280   27.1770 N.3   206  TRP206     -0.1241
    131  CA        15.3240   20.9200   25.8620 C.3   206  TRP206      0.1605
    132  C         13.9580   20.2620   25.8820 C.2   206  TRP206      0.2264
    133  O         13.6610   19.4330   26.7440 O.2   206  TRP206     -0.2867
    134  CB        16.3260   19.9810   25.1870 C.3   206  TRP206      0.0550
    135  CG        17.4490   20.7140   24.5370 C.ar  206  TRP206      0.0003
    136  CD1       18.6680   21.0060   25.0820 C.ar  206  TRP206      0.0946
    137  CD2       17.4350   21.3080   23.2380 C.ar  206  TRP206      0.0152
    138  NE1       19.4140   21.7460   24.1990 N.ar  206  TRP206     -0.2442
    139  CE2       18.6810   21.9470   23.0580 C.ar  206  TRP206      0.0810
    140  CE3       16.4880   21.3660   22.2060 C.ar  206  TRP206      0.0012
    141  CZ2       19.0080   22.6350   21.8850 C.ar  206  TRP206      0.0191
    142  CZ3       16.8140   22.0500   21.0360 C.ar  206  TRP206      0.0001
    143  CH2       18.0660   22.6760   20.8870 C.ar  206  TRP206      0.0015
@<TRIPOS>BOND
     1    30    31    2
     2    30    29    1
     3    29    28    1
     4    29    32    1
     5    32    33    1
     6    20    19    1
     7    20    21    2
     8    19    22    1
     9    19    18    1
    10    33    34   ar
    11    33    35   ar
    12    22    23    1
    13    34    36   ar
    14    35    37   ar
    15    36    37   ar
    16    23    25   ar
    17    23    24   ar
    18    25    27   ar
    19    38    39    1
    20    24    26   ar
    21    27    26   ar
    22   107   105    1
    23    41    40    2
    24    16    15    2
    25    17    15   am
    26    39    42    1
    27    39    40    1
    28    15    14    1
    29    13    10    1
    30    13    14    1
    31    44    46   ar
    32    44    43   ar
    33    11    10    1
    34    11    12    2
    35    42    43    1
    36    46    47   ar
    37    43    45   ar
    38   105   106    1
    39   105   102    1
    40    47    45   ar
    41    10     9    1
    42   114   113    1
    43   114   108    1
    44    99    98    1
    45    97    96    2
    46   102   101    1
    47   102   103    1
    48   113   112    1
    49     4     3    2
    50     9     3   am
    51    98   100    1
    52    98    95    1
    53    96   101   am
    54    96    95    1
    55   108   103   am
    56   108   109    1
    57     3     2    1
    58   112   109    1
    59   103   104    2
    60   111   110    2
    61    95    94    1
    62    54    52    1
    63    48    49    1
    64   109   110    1
    65   110   115   am
    66    94    88   am
    67     2     1    1
    68     2     5    1
    69   143   142   ar
    70   143   141   ar
    71    52    49    1
    72    52    53    1
    73    78    77    1
    74     6     5    1
    75     6     8    1
    76   142   140   ar
    77    49    50    1
    78     7     5    1
    79    51    50    2
    80   115   121    1
    81   115   116    1
    82   141   139   ar
    83    88    89    2
    84    88    87    1
    85   121   120    1
    86   140   137   ar
    87    77    79    1
    88    77    74    1
    89    75    74    1
    90    75    76    2
    91    90    87    1
    92    90    91    1
    93    87    86    1
    94   116   117    1
    95   116   119    1
    96   139   137   ar
    97   139   138   ar
    98    74    73    1
    99   137   135   ar
   100    93    91    1
   101   117   118    2
   102    92    91    1
   103   120   119    1
   104    65    63   ar
   105    65    64   ar
   106    83    82    2
   107    63    61   ar
   108    64    62   ar
   109   138   136   ar
   110    86    82   am
   111   135   136   ar
   112   135   134    1
   113    82    81    1
   114    61    60   ar
   115    62    60   ar
   116    85    84    1
   117    60    59    1
   118   134   131    1
   119   122   123    1
   120    59    56    1
   121   131   132    1
   122   131   130    1
   123   132   133    2
   124    84    81    1
   125    81    80    1
   126    71    70    1
   127   125   124    2
   128   127   128    1
   129   127   126    1
   130   127   129    1
   131   123   126    1
   132   123   124    1
   133    56    57    1
   134    56    55    1
   135    57    58    2
   136    70    72    1
   137    70    67    1
   138    67    66    1
   139    67    68    1
   140    69    68    2
