@<TRIPOS>MOLECULE
tmp/1ttoA00.pdb
 99 96 0 0 0
SMALL
GASTEIGER

@<TRIPOS>ATOM
      1  N         -4.2420   23.7470    6.1410 N.3    36  ASN36      -0.1240
      2  CA        -5.1840   24.6890    5.5450 C.3    36  ASN36       0.1653
      3  C         -5.0340   24.7700    4.0360 C.2    36  ASN36       0.2266
      4  O         -5.6220   25.6270    3.4000 O.2    36  ASN36      -0.2867
      5  CB        -5.0250   26.0830    6.1640 C.3    36  ASN36       0.1155
      6  CG        -5.6940   26.1970    7.5200 C.2    36  ASN36       0.2627
      7  OD1       -5.1400   26.8090    8.4400 O.2    36  ASN36      -0.2716
      8  ND2       -6.8930   25.6150    7.6570 N.am   36  ASN36      -0.0877
      9  N         -2.4570   25.5500    1.5130 N.3    38  TYR38      -0.1241
     10  CA        -1.9230   26.7120    0.8110 C.3    38  TYR38       0.1605
     11  C         -1.1640   26.2120   -0.4160 C.2    38  TYR38       0.2264
     12  O         -0.4930   25.1920   -0.3680 O.2    38  TYR38      -0.2867
     13  CB        -0.9830   27.4930    1.7280 C.3    38  TYR38       0.0534
     14  CG        -1.7180   28.2380    2.8200 C.ar   38  TYR38      -0.0201
     15  CD1       -2.4270   29.4110    2.5310 C.ar   38  TYR38      -0.0009
     16  CD2       -1.7070   27.7750    4.1390 C.ar   38  TYR38      -0.0009
     17  CE1       -3.1030   30.1090    3.5330 C.ar   38  TYR38       0.0417
     18  CE2       -2.3850   28.4640    5.1500 C.ar   38  TYR38       0.0417
     19  CZ        -3.0750   29.6260    4.8430 C.ar   38  TYR38       0.1957
     20  OH        -3.7190   30.3230    5.8380 O.3    38  TYR38      -0.2866
     21  N         -4.3960   28.8030   -1.5400 N.3    40  HIS40      -0.1226
     22  CA        -5.8030   28.6480   -1.8800 C.3    40  HIS40       0.1752
     23  C         -6.2960   30.0380   -2.2660 C.2    40  HIS40       0.2596
     24  O         -5.5800   31.0170   -2.0850 O.2    40  HIS40      -0.2718
     25  CB        -6.6170   28.0230   -0.7360 C.3    40  HIS40       0.0759
     26  CG        -6.5030   28.7380    0.5720 C.ar   40  HIS40       0.0818
     27  ND1       -5.8600   28.1900    1.6630 N.ar   40  HIS40      -0.2268
     28  CD2       -7.0090   29.9240    0.9870 C.ar   40  HIS40       0.1154
     29  CE1       -5.9780   29.0060    2.6960 C.ar   40  HIS40       0.1986
     30  NE2       -6.6700   30.0660    2.3120 N.ar   40  HIS40      -0.2212
     31  N         -7.4860   30.1250   -2.8370 N.am   41  GLU41      -0.1965
     32  CA        -7.9980   31.4050   -3.2730 C.3    41  GLU41       0.1733
     33  C         -8.1520   32.4450   -2.1630 C.2    41  GLU41       0.2616
     34  O         -8.6550   32.1410   -1.0780 O.2    41  GLU41      -0.2715
     35  CB        -9.3360   31.2050   -3.9950 C.3    41  GLU41       0.0429
     36  CG       -10.0760   32.4980   -4.3240 C.3    41  GLU41       0.1163
     37  CD       -11.3130   32.2960   -5.1980 C.2    41  GLU41       0.3649
     38  OE1      -11.9830   31.2500   -5.0600 O.co2  41  GLU41      -0.2457
     39  OE2      -11.6210   33.2010   -6.0050 O.co2  41  GLU41      -0.2457
     40  N         -7.6780   33.6590   -2.4420 N.am   42  PHE42      -0.1974
     41  CA        -7.7860   34.7870   -1.5140 C.3    42  PHE42       0.1639
     42  C         -9.1020   35.4370   -1.9320 C.2    42  PHE42       0.2290
     43  O         -9.2170   35.8970   -3.0670 O.2    42  PHE42      -0.2864
     44  CB        -6.6260   35.7920   -1.7100 C.3    42  PHE42       0.0560
     45  CG        -6.8040   37.0740   -0.9260 C.ar   42  PHE42      -0.0200
     46  CD1       -6.8900   37.0470    0.4710 C.ar   42  PHE42      -0.0042
     47  CD2       -6.9670   38.2900   -1.5810 C.ar   42  PHE42      -0.0042
     48  CE1       -7.1410   38.2130    1.2020 C.ar   42  PHE42      -0.0003
     49  CE2       -7.2140   39.4580   -0.8550 C.ar   42  PHE42      -0.0003
     50  CZ        -7.3020   39.4150    0.5390 C.ar   42  PHE42      -0.0000
     51  N         -3.6010   33.2890   -2.0150 N.3    58  GLU58      -0.1245
     52  CA        -2.7280   33.6660   -0.9080 C.3    58  GLU58       0.1567
     53  C         -1.8110   32.5030   -0.5670 C.2    58  GLU58       0.2260
     54  O         -2.1690   31.3400   -0.7620 O.2    58  GLU58      -0.2867
     55  CB        -3.5200   34.0800    0.3490 C.3    58  GLU58       0.0388
     56  CG        -4.5140   33.0610    0.8680 C.3    58  GLU58       0.1160
     57  CD        -5.2250   33.5010    2.1420 C.2    58  GLU58       0.3649
     58  OE1       -4.6000   33.4800    3.2210 O.co2  58  GLU58      -0.2457
     59  OE2       -6.4160   33.8780    2.0710 O.co2  58  GLU58      -0.2457
     60  N          0.6860   37.0080    4.4900 N.3    77  ARG77      -0.1245
     61  CA         0.4250   36.3360    3.2050 C.3    77  ARG77       0.1563
     62  C          0.8170   37.1670    1.9930 C.2    77  ARG77       0.2260
     63  O          0.6580   38.3880    1.9990 O.2    77  ARG77      -0.2867
     64  CB        -1.0710   36.0240    3.0320 C.3    77  ARG77       0.0307
     65  CG        -1.7700   35.3610    4.2050 C.3    77  ARG77       0.0489
     66  CD        -1.6130   33.8450    4.2480 C.3    77  ARG77       0.2205
     67  NE        -2.3150   33.2990    5.4120 N.pl3  77  ARG77      -0.0865
     68  CZ        -1.7650   33.1670    6.6140 C.cat  77  ARG77       0.5346
     69  NH1       -0.4960   33.5180    6.8160 N.pl3  77  ARG77       0.1354
     70  NH2       -2.4920   32.7280    7.6270 N.pl3  77  ARG77       0.1354
     71  N         -2.8460   39.4370    9.0640 N.3    92  HIS92      -0.1241
     72  CA        -3.9470   39.4620   10.0130 C.3    92  HIS92       0.1621
     73  C         -3.5780   40.3870   11.1750 C.2    92  HIS92       0.2264
     74  O         -4.4510   40.9760   11.7990 O.2    92  HIS92      -0.2867
     75  CB        -4.2390   38.0610   10.5580 C.3    92  HIS92       0.0745
     76  CG        -4.9780   37.1890    9.5990 C.ar   92  HIS92       0.0817
     77  ND1       -6.1780   37.5660    9.0340 N.ar   92  HIS92      -0.2268
     78  CD2       -4.7090   35.9530    9.1160 C.ar   92  HIS92       0.1154
     79  CE1       -6.6180   36.6010    8.2490 C.ar   92  HIS92       0.1986
     80  NE2       -5.7440   35.6100    8.2820 N.ar   92  HIS92      -0.2212
     81  N        -11.0160   37.3580   11.1270 N.3    98  ASN98      -0.1240
     82  CA       -10.3630   36.8020    9.9490 C.3    98  ASN98       0.1653
     83  C        -10.0210   37.8420    8.9200 C.2    98  ASN98       0.2266
     84  O         -9.6220   37.5220    7.8010 O.2    98  ASN98      -0.2867
     85  CB       -11.2510   35.7360    9.3100 C.3    98  ASN98       0.1155
     86  CG       -11.1580   34.4160   10.0280 C.2    98  ASN98       0.2627
     87  OD1      -10.0620   33.9300   10.3120 O.2    98  ASN98      -0.2716
     88  ND2      -12.2990   33.8290   10.3270 N.am   98  ASN98      -0.0877
     89  N         -8.0770   41.1380    7.1830 N.3   100  PHE100     -0.1241
     90  CA        -6.7180   41.4350    6.8040 C.3   100  PHE100      0.1605
     91  C         -6.5330   42.9330    6.6550 C.2   100  PHE100      0.2264
     92  O         -7.4950   43.6760    6.4750 O.2   100  PHE100     -0.2867
     93  CB        -6.4120   40.8430    5.4370 C.3   100  PHE100      0.0534
     94  CG        -6.1490   39.3710    5.4450 C.ar  100  PHE100     -0.0203
     95  CD1       -4.9140   38.8820    5.8660 C.ar  100  PHE100     -0.0042
     96  CD2       -7.0880   38.4870    4.9160 C.ar  100  PHE100     -0.0042
     97  CE1       -4.6060   37.5400    5.7440 C.ar  100  PHE100     -0.0003
     98  CE2       -6.7910   37.1430    4.7910 C.ar  100  PHE100     -0.0003
     99  CZ        -5.5480   36.6690    5.1990 C.ar  100  PHE100     -0.0000
@<TRIPOS>BOND
     1    39    37   ar
     2    37    38   ar
     3    37    36    1
     4    36    35    1
     5    35    32    1
     6    32    31    1
     7    32    33    1
     8    43    42    2
     9    31    23   am
    10    40    33   am
    11    40    41    1
    12    23    24    2
    13    23    22    1
    14    33    34    2
    15    51    52    1
    16    42    41    1
    17    22    21    1
    18    22    25    1
    19    44    41    1
    20    44    45    1
    21    47    45   ar
    22    47    49   ar
    23    45    46   ar
    24    52    53    1
    25    52    55    1
    26    49    50   ar
    27    54    53    2
    28    25    26    1
    29    11    12    2
    30    11    10    1
    31    55    56    1
    32    46    48   ar
    33    50    48   ar
    34    26    28   ar
    35    26    27   ar
    36    10     9    1
    37    10    13    1
    38    56    57    1
    39    28    30   ar
    40    27    29   ar
    41    13    14    1
    42    62    63    2
    43    62    61    1
    44    59    57   ar
    45    57    58   ar
    46    30    29   ar
    47    15    14   ar
    48    15    17   ar
    49    14    16   ar
    50    64    61    1
    51    64    65    1
    52    61    60    1
    53     4     3    2
    54    17    19   ar
    55     3     2    1
    56    16    18   ar
    57    65    66    1
    58    66    67    1
    59    98    96   ar
    60    98    99   ar
    61    19    18   ar
    62    19    20    1
    63    96    94   ar
    64    99    97   ar
    65    67    68    2
    66    93    94    1
    67    93    90    1
    68    94    95   ar
    69     2     1    1
    70     2     5    1
    71    97    95   ar
    72     5     6    1
    73    92    91    2
    74    68    69    1
    75    68    70    1
    76    91    90    1
    77    90    89    1
    78     6     8   am
    79     6     7    2
    80    84    83    2
    81    79    80   ar
    82    79    77   ar
    83    80    78   ar
    84    83    82    1
    85    77    76   ar
    86    71    72    1
    87    78    76   ar
    88    85    82    1
    89    85    86    1
    90    76    75    1
    91    82    81    1
    92    72    75    1
    93    72    73    1
    94    86    87    2
    95    86    88   am
    96    73    74    2
