@<TRIPOS>MOLECULE
tmp/1tttD01.pdb
 172 168 0 0 0
SMALL
GASTEIGER

@<TRIPOS>ATOM
      1  N         78.8270  -13.5000   27.4840 N.3    20  VAL20      -0.1231
      2  CA        79.4520  -14.6080   26.7990 C.3    20  VAL20       0.1692
      3  C         78.4430  -15.4690   26.1010 C.2    20  VAL20       0.2592
      4  O         77.3980  -15.7920   26.6740 O.2    20  VAL20      -0.2718
      5  CB        80.1570  -15.5520   27.7970 C.3    20  VAL20       0.0266
      6  CG1       79.1990  -16.1420   28.7720 C.3    20  VAL20       0.0020
      7  CG2       80.7850  -16.6440   27.0640 C.3    20  VAL20       0.0020
      8  N         78.7740  -15.8220   24.8560 N.am   21  ASP21      -0.1960
      9  CA        77.9400  -16.6860   23.9850 C.3    21  ASP21       0.1840
     10  C         76.5840  -16.1280   23.5960 C.2    21  ASP21       0.2622
     11  O         75.6900  -16.8580   23.2280 O.2    21  ASP21      -0.2715
     12  CB        77.6020  -17.9350   24.7960 C.3    21  ASP21       0.1450
     13  CG        77.7160  -19.2020   23.9870 C.2    21  ASP21       0.3671
     14  OD1       78.7770  -19.4190   23.3410 O.co2  21  ASP21      -0.2456
     15  OD2       76.7340  -19.9790   24.0530 O.co2  21  ASP21      -0.2456
     16  N         76.3560  -14.8400   23.7410 N.am   22  HIS22      -0.1959
     17  CA        75.0450  -14.3960   23.3970 C.3    22  HIS22       0.1787
     18  C         74.9360  -14.3330   21.8830 C.2    22  HIS22       0.2621
     19  O         73.8620  -14.0560   21.3500 O.2    22  HIS22      -0.2715
     20  CB        74.7020  -13.1160   24.1650 C.3    22  HIS22       0.0785
     21  CG        74.1220  -13.3590   25.5270 C.ar   22  HIS22       0.0821
     22  ND1       73.1230  -12.5670   26.0520 N.ar   22  HIS22      -0.2267
     23  CD2       74.3940  -14.3010   26.4680 C.ar   22  HIS22       0.1154
     24  CE1       72.8180  -13.0040   27.2650 C.ar   22  HIS22       0.1986
     25  NE2       73.5680  -14.0600   27.5420 N.ar   22  HIS22      -0.2212
     26  N         76.0470  -14.6210   21.1980 N.am   23  GLY23      -0.1940
     27  CA        76.0780  -14.6290   19.7340 C.3    23  GLY23       0.2014
     28  C         76.7900  -13.4740   19.0520 C.2    23  GLY23       0.2639
     29  O         76.5000  -13.1330   17.9050 O.2    23  GLY23      -0.2714
     30  N         77.7440  -12.8670   19.7420 N.am   24  LYS24      -0.1963
     31  CA        78.4360  -11.7360   19.1380 C.3    24  LYS24       0.1728
     32  C         79.0540  -12.0300   17.7930 C.2    24  LYS24       0.2617
     33  O         78.7540  -11.3720   16.8170 O.2    24  LYS24      -0.2715
     34  CB        79.4540  -11.1220   20.0980 C.3    24  LYS24       0.0311
     35  CG        78.8550  -10.4340   21.3270 C.3    24  LYS24       0.0038
     36  CD        80.0480  -10.1390   22.1610 C.3    24  LYS24       0.0206
     37  CE        80.6540  -11.4820   22.5410 C.3    24  LYS24       0.1093
     38  NZ        79.9690  -12.2090   23.6960 N.3    24  LYS24      -0.1314
     39  N         79.8970  -13.0470   17.7620 N.am   25  THR25      -0.1937
     40  CA        80.6070  -13.4820   16.5720 C.3    25  THR25       0.2028
     41  C         79.7450  -13.9670   15.4020 C.2    25  THR25       0.2642
     42  O         80.0520  -13.6260   14.2400 O.2    25  THR25      -0.2714
     43  CB        81.5460  -14.6130   16.9400 C.3    25  THR25       0.1808
     44  OG1       82.3520  -14.1980   18.0550 O.3    25  THR25      -0.2208
     45  CG2       82.4040  -14.9930   15.7330 C.3    25  THR25       0.0379
     46  N         78.7080  -14.7560   15.7060 N.am   26  THR26      -0.1950
     47  CA        77.8330  -15.2660   14.6700 C.3    26  THR26       0.1897
     48  C         77.3140  -14.0280   13.9670 C.2    26  THR26       0.2313
     49  O         77.5610  -13.8150   12.7580 O.2    26  THR26      -0.2863
     50  CB        76.6360  -16.0550   15.2320 C.3    26  THR26       0.1794
     51  OG1       77.0290  -17.4050   15.5130 O.3    26  THR26      -0.2208
     52  CG2       75.4600  -16.0930   14.2410 C.3    26  THR26       0.0378
     53  N         82.4530  -17.7480   10.7100 N.3    47  TYR47      -0.1241
     54  CA        82.8160  -17.8930   12.0910 C.3    47  TYR47       0.1605
     55  C         84.2540  -18.2690   12.1610 C.2    47  TYR47       0.2264
     56  O         85.0340  -17.5070   12.7160 O.2    47  TYR47      -0.2867
     57  CB        82.0800  -19.0850   12.6210 C.3    47  TYR47       0.0534
     58  CG        81.7880  -19.1050   14.0830 C.ar   47  TYR47      -0.0201
     59  CD1       80.6610  -18.4800   14.5880 C.ar   47  TYR47      -0.0009
     60  CD2       82.5820  -19.8290   14.9540 C.ar   47  TYR47      -0.0009
     61  CE1       80.3570  -18.5420   15.9330 C.ar   47  TYR47       0.0417
     62  CE2       82.2940  -19.8910   16.3030 C.ar   47  TYR47       0.0417
     63  CZ        81.1850  -19.2530   16.7900 C.ar   47  TYR47       0.1957
     64  OH        80.9510  -19.3350   18.1510 O.3    47  TYR47      -0.2866
     65  N         86.5370  -16.5560   14.7840 N.3    51  ASP51      -0.1239
     66  CA        87.0510  -17.2170   15.9670 C.3    51  ASP51       0.1674
     67  C         87.8870  -18.2330   15.1720 C.2    51  ASP51       0.2266
     68  O         87.3620  -19.1850   14.6100 O.2    51  ASP51      -0.2867
     69  CB        85.8980  -17.8010   16.7780 C.3    51  ASP51       0.1410
     70  CG        85.5750  -16.9530   18.0090 C.2    51  ASP51       0.3668
     71  OD1       86.3550  -16.0030   18.2380 O.co2  51  ASP51      -0.2456
     72  OD2       84.6000  -17.2320   18.7530 O.co2  51  ASP51      -0.2456
     73  N         85.4850  -23.1730   21.8110 N.3    60  GLY60      -0.1210
     74  CA        84.3060  -22.5610   21.2460 C.3    60  GLY60       0.1956
     75  C         83.9880  -21.1840   21.8080 C.2    60  GLY60       0.2612
     76  O         82.8130  -20.9040   22.0420 O.2    60  GLY60      -0.2717
     77  N         84.9930  -20.3280   22.0150 N.am   61  ILE61      -0.1965
     78  CA        84.7480  -18.9770   22.5220 C.3    61  ILE61       0.1727
     79  C         85.6950  -18.0050   21.8740 C.2    61  ILE61       0.2616
     80  O         86.7460  -18.3920   21.3440 O.2    61  ILE61      -0.2715
     81  CB        84.9960  -18.8430   24.0000 C.3    61  ILE61       0.0290
     82  CG1       86.4040  -19.2810   24.3330 C.3    61  ILE61       0.0022
     83  CG2       84.0500  -19.6660   24.8140 C.3    61  ILE61       0.0023
     84  CD1       86.6470  -18.7580   25.6530 C.3    61  ILE61       0.0001
     85  N         85.3110  -16.7430   21.9340 N.am   62  THR62      -0.1951
     86  CA        86.1410  -15.7090   21.3540 C.3    62  THR62       0.1897
     87  C         87.1850  -15.3590   22.4140 C.2    62  THR62       0.2313
     88  O         86.7960  -15.2040   23.5560 O.2    62  THR62      -0.2863
     89  CB        85.2420  -14.4700   21.1620 C.3    62  THR62       0.1794
     90  OG1       84.2910  -14.6870   20.0970 O.3    62  THR62      -0.2208
     91  CG2       86.1120  -13.2160   20.9830 C.3    62  THR62       0.0378
     92  N         85.1670  -10.4750   22.8620 N.3    83  PRO83      -0.2102
     93  CA        84.9850  -11.6240   23.7010 C.3    83  PRO83       0.1504
     94  C         84.1320  -11.1670   24.9060 C.2    83  PRO83       0.2576
     95  O         84.3350  -10.0500   25.4130 O.2    83  PRO83      -0.2718
     96  CB        86.4230  -11.9400   24.0980 C.3    83  PRO83       0.0282
     97  CG        87.0830  -10.5560   24.1570 C.3    83  PRO83       0.0208
     98  CD        86.5080   -9.8740   22.9730 C.3    83  PRO83       0.0893
     99  N         83.1880  -12.0280   25.3210 N.am   84  GLY84      -0.1943
    100  CA        82.2250  -11.8320   26.4270 C.3    84  GLY84       0.2014
    101  C         82.5020  -12.6440   27.7070 C.2    84  GLY84       0.2638
    102  O         81.7820  -12.6080   28.7340 O.2    84  GLY84      -0.2714
    103  N         83.5730  -13.4100   27.6200 N.am   85  HIS85      -0.1973
    104  CA        83.9740  -14.1950   28.7550 C.3    85  HIS85       0.1656
    105  C         84.6620  -13.1930   29.6760 C.2    85  HIS85       0.2291
    106  O         85.5440  -12.4530   29.2380 O.2    85  HIS85      -0.2864
    107  CB        85.0150  -15.2220   28.3780 C.3    85  HIS85       0.0771
    108  CG        85.2980  -16.1490   29.5110 C.ar   85  HIS85       0.0820
    109  ND1       84.9320  -17.4760   29.5070 N.ar   85  HIS85      -0.2267
    110  CD2       85.8310  -15.9120   30.7310 C.ar   85  HIS85       0.1154
    111  CE1       85.2730  -18.0280   30.6540 C.ar   85  HIS85       0.1986
    112  NE2       85.8240  -17.1020   31.4150 N.ar   85  HIS85      -0.2212
    113  N         69.3500  -11.1640   20.3160 N.3   136  ASN136     -0.1225
    114  CA        69.5830  -12.3390   19.5230 C.3   136  ASN136      0.1785
    115  C         68.8950  -13.5580   20.0960 C.2   136  ASN136      0.2597
    116  O         68.3080  -13.4790   21.1850 O.2   136  ASN136     -0.2718
    117  CB        71.0760  -12.6250   19.4420 C.3   136  ASN136      0.1169
    118  CG        71.3970  -13.6000   18.3360 C.2   136  ASN136      0.2627
    119  OD1       70.7560  -13.5540   17.2840 O.2   136  ASN136     -0.2716
    120  ND2       72.3480  -14.5080   18.5650 N.am  136  ASN136     -0.0877
    121  N         69.0180  -14.6660   19.3460 N.am  137  LYS137     -0.1980
    122  CA        68.4910  -15.9910   19.6460 C.3   137  LYS137      0.1596
    123  C         66.9930  -16.1230   19.7100 C.2   137  LYS137      0.2287
    124  O         66.4420  -17.1130   20.2490 O.2   137  LYS137     -0.2864
    125  CB        69.1770  -16.6510   20.8450 C.3   137  LYS137      0.0298
    126  CG        70.6000  -17.1540   20.5650 C.3   137  LYS137      0.0038
    127  CD        71.4940  -17.0020   21.7710 C.3   137  LYS137      0.0206
    128  CE        72.9160  -17.6000   21.6670 C.3   137  LYS137      0.1093
    129  NZ        72.9660  -19.1080   21.4290 N.3   137  LYS137     -0.1314
    130  N         64.8440  -16.9000   17.5630 N.3   139  ASP139     -0.1225
    131  CA        64.3810  -18.1340   16.9780 C.3   139  ASP139      0.1805
    132  C         64.0560  -19.0780   18.0860 C.2   139  ASP139      0.2597
    133  O         63.0650  -19.7640   18.0170 O.2   139  ASP139     -0.2718
    134  CB        65.4590  -18.7410   16.1050 C.3   139  ASP139      0.1424
    135  CG        66.7890  -18.8640   16.8170 C.2   139  ASP139      0.3668
    136  OD1       67.0240  -19.8990   17.4810 O.co2 139  ASP139     -0.2456
    137  OD2       67.6130  -17.9410   16.6340 O.co2 139  ASP139     -0.2456
    138  N         64.8370  -19.0050   19.1490 N.am  140  MET140     -0.1979
    139  CA        64.6180  -19.8470   20.2940 C.3   140  MET140      0.1605
    140  C         63.4740  -19.4350   21.1960 C.2   140  MET140      0.2287
    141  O         63.1460  -20.1390   22.1710 O.2   140  MET140     -0.2864
    142  CB        65.8800  -19.8860   21.0950 C.3   140  MET140      0.0413
    143  CG        67.0780  -20.1710   20.2660 C.3   140  MET140      0.0598
    144  SD        67.4660  -21.9330   20.3180 S.3   140  MET140     -0.1393
    145  CE        65.8000  -22.6020   20.4000 C.3   140  MET140      0.0692
    146  N         67.6830  -13.5910   14.9440 N.3   174  SER174     -0.1202
    147  CA        68.4730  -14.8000   15.0150 C.3   174  SER174      0.2020
    148  C         69.5590  -14.4860   14.0030 C.2   174  SER174      0.2619
    149  O         69.2850  -14.0720   12.8710 O.2   174  SER174     -0.2717
    150  CB        67.7140  -16.0370   14.5890 C.3   174  SER174      0.2103
    151  OG        68.7280  -16.9710   14.2570 O.3   174  SER174     -0.2182
    152  N         70.7900  -14.6390   14.4630 N.am  175  ALA175     -0.1965
    153  CA        71.9480  -14.3180   13.6730 C.3   175  ALA175      0.1728
    154  C         72.3370  -15.6070   13.0400 C.2   175  ALA175      0.2616
    155  O         72.8270  -15.6560   11.9140 O.2   175  ALA175     -0.2715
    156  CB        73.0310  -13.8650   14.6230 C.3   175  ALA175      0.0334
    157  N         72.1160  -16.6590   13.8160 N.am  176  LEU176     -0.1963
    158  CA        72.4360  -17.9890   13.3370 C.3   176  LEU176      0.1728
    159  C         71.6170  -18.1540   12.0740 C.2   176  LEU176      0.2616
    160  O         72.1710  -18.3740   11.0060 O.2   176  LEU176     -0.2715
    161  CB        71.9110  -19.0210   14.2940 C.3   176  LEU176      0.0311
    162  CG        72.3400  -20.4130   13.8780 C.3   176  LEU176      0.0022
    163  CD1       73.7970  -20.4160   13.6160 C.3   176  LEU176      0.0001
    164  CD2       72.1350  -21.3020   15.0870 C.3   176  LEU176      0.0001
    165  N         70.3090  -17.9910   12.1850 N.am  177  LEU177     -0.1977
    166  CA        69.5120  -18.1290   10.9980 C.3   177  LEU177      0.1596
    167  C         69.9060  -17.2510    9.8360 C.2   177  LEU177      0.2287
    168  O         69.8650  -17.6950    8.6950 O.2   177  LEU177     -0.2864
    169  CB        68.0200  -17.9990   11.2430 C.3   177  LEU177      0.0297
    170  CG        67.4490  -19.3210   11.7810 C.3   177  LEU177      0.0022
    171  CD1       68.3360  -19.8430   12.8470 C.3   177  LEU177      0.0001
    172  CD2       65.9760  -19.2070   12.2460 C.3   177  LEU177      0.0001
@<TRIPOS>BOND
     1   168   167    2
     2   167   166    1
     3    53    54    1
     4   166   169    1
     5   166   165    1
     6   160   159    2
     7   169   170    1
     8   170   172    1
     9   170   171    1
    10   155   154    2
    11   159   165   am
    12   159   158    1
    13    54    55    1
    14    54    57    1
    15    55    56    2
    16    57    58    1
    17    49    48    2
    18   149   148    2
    19   154   153    1
    20   154   157   am
    21   158   157    1
    22   158   161    1
    23   163   162    1
    24   153   152    1
    25   153   156    1
    26   162   161    1
    27   162   164    1
    28    48    47    1
    29   148   152   am
    30   148   147    1
    31    58    59   ar
    32    58    60   ar
    33    42    41    2
    34    52    50    1
    35   151   150    1
    36    59    61   ar
    37   150   147    1
    38    68    67    2
    39    47    50    1
    40    47    46    1
    41    65    66    1
    42   146   147    1
    43    60    62   ar
    44    67    66    1
    45    50    51    1
    46    41    46   am
    47    41    40    1
    48    45    43    1
    49    61    63   ar
    50    66    69    1
    51   134   135    1
    52   134   131    1
    53    62    63   ar
    54    40    43    1
    55    40    39    1
    56   137   135   ar
    57    69    70    1
    58    63    64    1
    59   135   136   ar
    60    33    32    2
    61    43    44    1
    62   131   130    1
    63   131   132    1
    64   119   118    2
    65    39    32   am
    66    32    31    1
    67    29    28    2
    68    70    71   ar
    69    70    72   ar
    70   133   132    2
    71   132   138   am
    72   118   120   am
    73   118   117    1
    74    28    27    1
    75    28    30   am
    76    31    30    1
    77    31    34    1
    78   138   139    1
    79   121   122    1
    80   121   115   am
    81   117   114    1
    82   114   115    1
    83   114   113    1
    84   122   123    1
    85   122   125    1
    86   123   124    2
    87    27    26    1
    88   115   116    2
    89    90    89    1
    90    34    35    1
    91   143   144    1
    92   143   142    1
    93   139   142    1
    94   139   140    1
    95   144   145    1
    96   126   125    1
    97   126   127    1
    98    91    89    1
    99    89    86    1
   100   140   141    2
   101    26    18   am
   102    74    75    1
   103    74    73    1
   104    35    36    1
   105    80    79    2
   106    19    18    2
   107    86    85    1
   108    86    87    1
   109   129   128    1
   110   128   127    1
   111    75    77   am
   112    75    76    2
   113    79    85   am
   114    79    78    1
   115    18    17    1
   116    77    78    1
   117    36    37    1
   118    87    88    2
   119    78    81    1
   120    37    38    1
   121    92    98    1
   122    92    93    1
   123    98    97    1
   124    11    10    2
   125    14    13   ar
   126    17    16    1
   127    17    20    1
   128    10    16   am
   129    10     9    1
   130    93    96    1
   131    93    94    1
   132     9    12    1
   133     9     8    1
   134    13    15   ar
   135    13    12    1
   136    81    82    1
   137    81    83    1
   138    96    97    1
   139    20    21    1
   140    82    84    1
   141     8     3   am
   142    94    99   am
   143    94    95    2
   144    99   100    1
   145    21    22   ar
   146    21    23   ar
   147    22    24   ar
   148     3     4    2
   149     3     2    1
   150   100   101    1
   151    23    25   ar
   152     2     1    1
   153     2     5    1
   154     7     5    1
   155    24    25   ar
   156   103   101   am
   157   103   104    1
   158   101   102    2
   159     5     6    1
   160   107   104    1
   161   107   108    1
   162   104   105    1
   163   106   105    2
   164   109   108   ar
   165   109   111   ar
   166   108   110   ar
   167   111   112   ar
   168   110   112   ar
