@<TRIPOS>MOLECULE
tmp/1tttD00.pdb
 102 99 0 0 0
SMALL
GASTEIGER

@<TRIPOS>ATOM
      1  N         89.1400   -7.7150   13.9510 N.3    67  HIS67      -0.1241
      2  CA        88.7150   -6.5710   13.1410 C.3    67  HIS67       0.1621
      3  C         88.1820   -7.0850   11.8190 C.2    67  HIS67       0.2264
      4  O         88.8350   -7.8990   11.1320 O.2    67  HIS67      -0.2867
      5  CB        89.8760   -5.6020   12.8850 C.3    67  HIS67       0.0745
      6  CG        90.4240   -5.0120   14.1400 C.ar   67  HIS67       0.0817
      7  ND1       90.2120   -3.7030   14.5040 N.ar   67  HIS67      -0.2268
      8  CD2       91.1250   -5.5750   15.1500 C.ar   67  HIS67       0.1154
      9  CE1       90.7910   -3.4720   15.6690 C.ar   67  HIS67       0.1986
     10  NE2       91.3520   -4.5930   16.0790 N.ar   67  HIS67      -0.2212
     11  N         96.6270   -0.2580   19.8600 N.3   226  GLU226     -0.1231
     12  CA        95.6580   -1.3000   20.1600 C.3   226  GLU226      0.1699
     13  C         96.3480   -2.5810   19.9310 C.2   226  GLU226      0.2592
     14  O         96.0490   -3.6370   20.5180 O.2   226  GLU226     -0.2718
     15  CB        94.4960   -1.2360   19.1720 C.3   226  GLU226      0.0402
     16  CG        93.6850   -2.5350   18.9450 C.3   226  GLU226      0.1161
     17  CD        93.9430   -3.1280   17.5750 C.2   226  GLU226      0.3649
     18  OE1       93.9100   -2.3980   16.5570 O.co2 226  GLU226     -0.2457
     19  OE2       94.1550   -4.3450   17.4900 O.co2 226  GLU226     -0.2457
     20  N         97.3050   -2.5180   19.0420 N.am  227  ASP227     -0.1974
     21  CA        97.9750   -3.7700   18.8250 C.3   227  ASP227      0.1709
     22  C         99.2000   -3.4950   18.0690 C.2   227  ASP227      0.2293
     23  O         99.3520   -2.4220   17.4560 O.2   227  ASP227     -0.2864
     24  CB        97.1490   -4.6580   17.9540 C.3   227  ASP227      0.1436
     25  CG        97.4270   -6.1070   18.2340 C.2   227  ASP227      0.3671
     26  OD1       98.5710   -6.3000   18.6820 O.co2 227  ASP227     -0.2456
     27  OD2       96.5360   -6.9940   18.0620 O.co2 227  ASP227     -0.2456
     28  N        102.2370   -5.4800   15.4220 N.3   229  PHE229     -0.1241
     29  CA       102.7130   -6.5950   14.6100 C.3   229  PHE229      0.1605
     30  C        104.0800   -6.4170   14.0050 C.2   229  PHE229      0.2264
     31  O        104.6560   -5.3090   13.8700 O.2   229  PHE229     -0.2867
     32  CB       101.7930   -7.0150   13.4820 C.3   229  PHE229      0.0534
     33  CG       100.3580   -6.9970   13.8590 C.ar  229  PHE229     -0.0203
     34  CD1       99.7230   -5.8040   14.0420 C.ar  229  PHE229     -0.0042
     35  CD2       99.6710   -8.1590   14.0860 C.ar  229  PHE229     -0.0042
     36  CE1       98.4010   -5.7660   14.4090 C.ar  229  PHE229     -0.0003
     37  CE2       98.3590   -8.1260   14.4620 C.ar  229  PHE229     -0.0003
     38  CZ        97.7120   -6.9150   14.6190 C.ar  229  PHE229     -0.0000
     39  N         98.8000   -0.7760   15.2500 N.3   239  THR239     -0.1218
     40  CA        97.4430   -0.5770   14.8100 C.3   239  THR239      0.1862
     41  C         96.6700    0.1790   15.8810 C.2   239  THR239      0.2287
     42  O         96.9650    0.0730   17.0720 O.2   239  THR239     -0.2866
     43  CB        96.7870   -1.9350   14.4850 C.3   239  THR239      0.1770
     44  OG1       96.4600   -2.6150   15.7110 O.3   239  THR239     -0.2211
     45  CG2       97.7770   -2.7810   13.6390 C.3   239  THR239      0.0375
     46  N         97.9340    1.8140    6.4090 N.3   271  GLU271     -0.1231
     47  CA        96.9690    0.9440    5.7960 C.3   271  GLU271      0.1699
     48  C         95.6620    1.0240    6.5540 C.2   271  GLU271      0.2592
     49  O         95.5740    1.7140    7.5550 O.2   271  GLU271     -0.2718
     50  CB        97.4850   -0.4810    5.7970 C.3   271  GLU271      0.0402
     51  CG        98.5940   -0.6540    4.8350 C.3   271  GLU271      0.1161
     52  CD        98.9590   -2.1090    4.5970 C.2   271  GLU271      0.3649
     53  OE1       98.2340   -3.0260    5.0380 O.co2 271  GLU271     -0.2457
     54  OE2       99.9790   -2.3410    3.9280 O.co2 271  GLU271     -0.2457
     55  N         94.6520    0.3270    6.0480 N.am  272  MET272     -0.1965
     56  CA        93.3200    0.2870    6.6270 C.3   272  MET272      0.1736
     57  C         92.8540   -0.9580    5.9350 C.2   272  MET272      0.2616
     58  O         92.7700   -1.0100    4.7170 O.2   272  MET272     -0.2715
     59  CB        92.4410    1.4720    6.2110 C.3   272  MET272      0.0427
     60  CG        91.2300    1.6290    7.1090 C.3   272  MET272      0.0599
     61  SD        90.3280    3.1770    7.1250 S.3   272  MET272     -0.1393
     62  CE        89.3480    2.9130    8.6020 C.3   272  MET272      0.0692
     63  N         92.5990   -1.9650    6.7490 N.am  273  HIS273     -0.1959
     64  CA        92.1880   -3.2610    6.2870 C.3   273  HIS273      0.1787
     65  C         93.0870   -3.7470    5.1890 C.2   273  HIS273      0.2620
     66  O         92.6280   -4.0070    4.0900 O.2   273  HIS273     -0.2715
     67  CB        90.7410   -3.2970    5.9820 C.3   273  HIS273      0.0785
     68  CG        89.9230   -3.0580    7.2000 C.ar  273  HIS273      0.0821
     69  ND1       89.9110   -3.9400    8.2630 N.ar  273  HIS273     -0.2267
     70  CD2       89.1120   -2.0330    7.5470 C.ar  273  HIS273      0.1154
     71  CE1       89.1090   -3.4760    9.2060 C.ar  273  HIS273      0.1986
     72  NE2       88.6130   -2.3200    8.7950 N.ar  273  HIS273     -0.2212
     73  N         94.3750   -3.8350    5.5040 N.am  274  ARG274     -0.1977
     74  CA        95.3370   -4.2990    4.5330 C.3   274  ARG274      0.1597
     75  C         95.2800   -3.5260    3.1760 C.2   274  ARG274      0.2287
     76  O         95.5620   -4.1000    2.1360 O.2   274  ARG274     -0.2864
     77  CB        95.1830   -5.8220    4.3450 C.3   274  ARG274      0.0334
     78  CG        95.4200   -6.7730    5.5510 C.3   274  ARG274      0.0492
     79  CD        94.5940   -8.0680    5.3320 C.3   274  ARG274      0.2205
     80  NE        95.0730   -9.3400    5.9030 N.pl3 274  ARG274     -0.0865
     81  CZ        94.5340  -10.5630    5.7130 C.cat 274  ARG274      0.5346
     82  NH1       93.4450  -10.7840    4.9660 N.pl3 274  ARG274      0.1354
     83  NH2       95.0800  -11.6260    6.2970 N.pl3 274  ARG274      0.1354
     84  N         90.7960    3.3300   11.3150 N.3   285  ASN285     -0.1225
     85  CA        91.3410    2.3190   12.1690 C.3   285  ASN285      0.1785
     86  C         92.4750    1.9340   11.2520 C.2   285  ASN285      0.2597
     87  O         92.2710    1.2230   10.2520 O.2   285  ASN285     -0.2718
     88  CB        90.5050    1.0920   12.3300 C.3   285  ASN285      0.1169
     89  CG        91.0730    0.2140   13.3950 C.2   285  ASN285      0.2627
     90  OD1       90.3730   -0.0150   14.3810 O.2   285  ASN285     -0.2716
     91  ND2       92.3720   -0.1940   13.2730 N.am  285  ASN285     -0.0877
     92  N         93.6620    2.4080   11.5930 N.am  286  VAL286     -0.1966
     93  CA        94.7970    2.1190   10.7620 C.3   286  VAL286      0.1727
     94  C         95.7980    1.1340   11.3140 C.2   286  VAL286      0.2616
     95  O         95.5060    0.4320   12.2970 O.2   286  VAL286     -0.2715
     96  CB        95.4450    3.4060   10.2670 C.3   286  VAL286      0.0290
     97  CG1       94.3660    4.3970    9.7730 C.3   286  VAL286      0.0023
     98  CG2       96.3240    4.0010   11.3330 C.3   286  VAL286      0.0023
     99  N         96.9380    1.0830   10.6200 N.am  287  GLY287     -0.1955
    100  CA        98.0870    0.2370   10.9070 C.3   287  GLY287      0.1869
    101  C         99.2630    1.0970   10.4560 C.2   287  GLY287      0.2309
    102  O         99.2030    1.6340    9.3670 O.2   287  GLY287     -0.2863
@<TRIPOS>BOND
     1    76    75    2
     2    75    74    1
     3    54    52   ar
     4    66    65    2
     5    77    74    1
     6    77    78    1
     7    74    73    1
     8    52    51    1
     9    52    53   ar
    10    58    57    2
    11    51    50    1
    12    82    81    1
    13    65    73   am
    14    65    64    1
    15    79    78    1
    16    79    80    1
    17    81    80    2
    18    81    83    1
    19    47    50    1
    20    47    46    1
    21    47    48    1
    22    57    56    1
    23    57    63   am
    24    67    64    1
    25    67    68    1
    26    55    48   am
    27    55    56    1
    28    59    56    1
    29    59    60    1
    30    64    63    1
    31    48    49    2
    32    60    61    1
    33    61    62    1
    34    68    70   ar
    35    68    69   ar
    36    70    72   ar
    37    69    71   ar
    38    72    71   ar
    39   102   101    2
    40    97    96    1
    41    87    86    2
    42    96    93    1
    43    96    98    1
    44   101   100    1
    45    99   100    1
    46    99    94   am
    47    93    94    1
    48    93    92    1
    49     4     3    2
    50    86    92   am
    51    86    85    1
    52    94    95    2
    53    84    85    1
    54     3     2    1
    55    85    88    1
    56    88    89    1
    57     5     2    1
    58     5     6    1
    59     2     1    1
    60    91    89   am
    61    89    90    2
    62    32    33    1
    63    32    29    1
    64    45    43    1
    65    33    34   ar
    66    33    35   ar
    67    31    30    2
    68    30    29    1
    69    34    36   ar
    70    35    37   ar
    71     6     7   ar
    72     6     8   ar
    73    36    38   ar
    74    37    38   ar
    75    43    40    1
    76    43    44    1
    77     7     9   ar
    78    29    28    1
    79    40    39    1
    80    40    41    1
    81     8    10   ar
    82     9    10   ar
    83    41    42    2
    84    18    17   ar
    85    23    22    2
    86    19    17   ar
    87    17    16    1
    88    24    25    1
    89    24    21    1
    90    27    25   ar
    91    22    21    1
    92    25    26   ar
    93    21    20    1
    94    16    15    1
    95    20    13   am
    96    15    12    1
    97    11    12    1
    98    13    12    1
    99    13    14    2
