@<TRIPOS>MOLECULE
tmp/1ttvA00.pdb
 133 128 0 0 0
SMALL
GASTEIGER

@<TRIPOS>ATOM
      1  N          0.5590   -0.6790   -3.3990 N.3    38  LEU38      -0.1245
      2  CA         0.3090   -2.0590   -3.7890 C.3    38  LEU38       0.1561
      3  C          1.6070   -2.8700   -3.7990 C.2    38  LEU38       0.2260
      4  O          1.5770   -4.1000   -3.8510 O.2    38  LEU38      -0.2867
      5  CB        -0.3450   -2.0930   -5.1740 C.3    38  LEU38       0.0270
      6  CG        -1.7240   -2.7530   -5.2240 C.3    38  LEU38       0.0019
      7  CD1       -2.4230   -2.4290   -6.5340 C.3    38  LEU38       0.0001
      8  CD2       -1.6060   -4.2580   -5.0400 C.3    38  LEU38       0.0001
      9  N          2.5990   -3.4090    0.2020 N.3    41  LEU41      -0.1231
     10  CA         1.5110   -4.1840    0.7490 C.3    41  LEU41       0.1693
     11  C          1.6620   -5.6520    0.3670 C.2    41  LEU41       0.2592
     12  O          1.4650   -6.5440    1.1920 O.2    41  LEU41      -0.2718
     13  CB         0.1860   -3.6270    0.2430 C.3    41  LEU41       0.0284
     14  CG        -1.0340   -4.3780    0.7360 C.3    41  LEU41       0.0019
     15  CD1       -1.1770   -4.2210    2.2420 C.3    41  LEU41       0.0001
     16  CD2       -2.2870   -3.9000    0.0190 C.3    41  LEU41       0.0001
     17  N          2.0380   -5.8970   -0.8850 N.am   42  GLY42      -0.1957
     18  CA         2.2360   -7.2590   -1.3380 C.3    42  GLY42       0.1869
     19  C          3.3680   -7.9230   -0.5870 C.2    42  GLY42       0.2309
     20  O          3.2930   -9.1030   -0.2400 O.2    42  GLY42      -0.2863
     21  N          2.5850   -9.0650    3.0350 N.3    45  ILE45      -0.1231
     22  CA         1.9790  -10.3830    3.1790 C.3    45  ILE45       0.1692
     23  C          3.0390  -11.4810    3.2190 C.2    45  ILE45       0.2591
     24  O          3.0730  -12.2870    4.1490 O.2    45  ILE45      -0.2718
     25  CB         0.9960  -10.6760    2.0300 C.3    45  ILE45       0.0266
     26  CG1        0.0090   -9.5190    1.8670 C.3    45  ILE45       0.0019
     27  CG2        0.2520  -11.9800    2.2830 C.3    45  ILE45       0.0020
     28  CD1       -0.8990   -9.6640    0.6650 C.3    45  ILE45       0.0001
     29  N          3.8980  -11.5130    2.2050 N.am   46  MET46      -0.1979
     30  CA         4.9510  -12.5210    2.1300 C.3    46  MET46       0.1605
     31  C          5.8450  -12.4750    3.3680 C.2    46  MET46       0.2287
     32  O          6.2370  -13.5150    3.8980 O.2    46  MET46      -0.2864
     33  CB         5.7920  -12.3270    0.8650 C.3    46  MET46       0.0413
     34  CG         6.6520  -11.0740    0.8880 C.3    46  MET46       0.0598
     35  SD         7.5670  -10.8300   -0.6470 S.3    46  MET46      -0.1393
     36  CE         6.2350  -10.8630   -1.8430 C.3    46  MET46       0.0692
     37  N         -0.0670  -15.8790    3.6650 N.3    51  TYR51      -0.1241
     38  CA        -0.5240  -16.7950    2.6260 C.3    51  TYR51       0.1605
     39  C         -0.5470  -18.2340    3.1340 C.2    51  TYR51       0.2264
     40  O          0.1720  -18.5860    4.0690 O.2    51  TYR51      -0.2867
     41  CB         0.3770  -16.6890    1.3950 C.3    51  TYR51       0.0534
     42  CG         1.8240  -17.0230    1.6770 C.ar   51  TYR51      -0.0201
     43  CD1        2.2410  -18.3420    1.8090 C.ar   51  TYR51      -0.0009
     44  CD2        2.7730  -16.0180    1.8160 C.ar   51  TYR51      -0.0009
     45  CE1        3.5620  -18.6500    2.0720 C.ar   51  TYR51       0.0417
     46  CE2        4.0970  -16.3180    2.0780 C.ar   51  TYR51       0.0417
     47  CZ         4.4850  -17.6350    2.2060 C.ar   51  TYR51       0.1957
     48  OH         5.8020  -17.9370    2.4670 O.3    51  TYR51      -0.2866
     49  N         -1.1640  -20.5860   -2.8990 N.3    56  GLN56      -0.1231
     50  CA        -0.2580  -19.4530   -2.7570 C.3    56  GLN56       0.1698
     51  C         -0.9820  -18.1350   -3.0220 C.2    56  GLN56       0.2592
     52  O         -0.5130  -17.0690   -2.6230 O.2    56  GLN56      -0.2718
     53  CB         0.9300  -19.6010   -3.7090 C.3    56  GLN56       0.0381
     54  CG         2.0740  -20.4140   -3.1260 C.3    56  GLN56       0.0905
     55  CD         1.8660  -21.9070   -3.2800 C.2    56  GLN56       0.2608
     56  OE1        1.6070  -22.4000   -4.3780 O.2    56  GLN56      -0.2717
     57  NE2        1.9790  -22.6370   -2.1760 N.am   56  GLN56      -0.0878
     58  N         -2.1280  -18.2130   -3.6950 N.am   57  HIS57      -0.1976
     59  CA        -2.9110  -17.0240   -4.0060 C.3    57  HIS57       0.1656
     60  C         -3.9900  -16.7790   -2.9500 C.2    57  HIS57       0.2291
     61  O         -4.8990  -15.9740   -3.1570 O.2    57  HIS57      -0.2864
     62  CB        -3.5440  -17.1560   -5.3950 C.3    57  HIS57       0.0771
     63  CG        -4.6890  -18.1210   -5.4500 C.ar   57  HIS57       0.0820
     64  ND1       -4.5720  -19.4020   -5.9460 N.ar   57  HIS57      -0.2267
     65  CD2       -5.9810  -17.9860   -5.0640 C.ar   57  HIS57       0.1154
     66  CE1       -5.7410  -20.0120   -5.8660 C.ar   57  HIS57       0.1986
     67  NE2       -6.6120  -19.1750   -5.3340 N.ar   57  HIS57      -0.2212
     68  N         -4.8860  -15.6850    1.0390 N.3    59  VAL59      -0.1245
     69  CA        -4.3930  -14.9850    2.2170 C.3    59  VAL59       0.1561
     70  C         -5.4460  -14.9490    3.3190 C.2    59  VAL59       0.2260
     71  O         -6.3490  -14.1130    3.2960 O.2    59  VAL59      -0.2867
     72  CB        -3.9690  -13.5430    1.8820 C.3    59  VAL59       0.0252
     73  CG1       -3.2710  -12.9030    3.0730 C.3    59  VAL59       0.0019
     74  CG2       -3.0730  -13.5210    0.6510 C.3    59  VAL59       0.0019
     75  N         -8.7750   -4.4970    6.0680 N.3    70  PHE70      -0.1241
     76  CA        -9.7320   -4.8280    5.0190 C.3    70  PHE70       0.1605
     77  C        -11.0740   -5.2420    5.6160 C.2    70  PHE70       0.2264
     78  O        -12.1180   -5.0890    4.9830 O.2    70  PHE70      -0.2867
     79  CB        -9.1870   -5.9540    4.1370 C.3    70  PHE70       0.0534
     80  CG        -7.8740   -5.6300    3.4800 C.ar   70  PHE70      -0.0203
     81  CD1       -7.5840   -4.3370    3.0760 C.ar   70  PHE70      -0.0042
     82  CD2       -6.9310   -6.6220    3.2660 C.ar   70  PHE70      -0.0042
     83  CE1       -6.3790   -4.0380    2.4710 C.ar   70  PHE70      -0.0003
     84  CE2       -5.7230   -6.3300    2.6600 C.ar   70  PHE70      -0.0003
     85  CZ        -5.4470   -5.0360    2.2630 C.ar   70  PHE70      -0.0000
     86  N         -8.9640  -13.7440    2.0080 N.3    75  PHE75      -0.1241
     87  CA        -9.1730  -13.1070    0.7130 C.3    75  PHE75       0.1605
     88  C         -8.1850  -13.6300   -0.3250 C.2    75  PHE75       0.2264
     89  O         -6.9980  -13.7930   -0.0410 O.2    75  PHE75      -0.2867
     90  CB        -9.0380  -11.5870    0.8390 C.3    75  PHE75       0.0534
     91  CG        -7.6450  -11.1300    1.1680 C.ar   75  PHE75      -0.0203
     92  CD1       -6.7060  -10.9500    0.1650 C.ar   75  PHE75      -0.0042
     93  CD2       -7.2750  -10.8800    2.4800 C.ar   75  PHE75      -0.0042
     94  CE1       -5.4240  -10.5300    0.4640 C.ar   75  PHE75      -0.0003
     95  CE2       -5.9940  -10.4590    2.7850 C.ar   75  PHE75      -0.0003
     96  CZ        -5.0680  -10.2840    1.7760 C.ar   75  PHE75      -0.0000
     97  N         -6.0230  -13.3740   -3.8680 N.3    77  VAL77      -0.1245
     98  CA        -5.3640  -12.3300   -4.6430 C.3    77  VAL77       0.1561
     99  C         -5.6440  -12.4730   -6.1380 C.2    77  VAL77       0.2260
    100  O         -5.0090  -11.8140   -6.9610 O.2    77  VAL77      -0.2867
    101  CB        -3.8400  -12.3250   -4.4140 C.3    77  VAL77       0.0252
    102  CG1       -3.5080  -11.6990   -3.0710 C.3    77  VAL77       0.0019
    103  CG2       -3.2700  -13.7320   -4.5080 C.3    77  VAL77       0.0019
    104  N         -8.3020   -9.0570   -8.2240 N.3    80  HIS80      -0.1241
    105  CA        -7.7020   -7.7500   -7.9750 C.3    80  HIS80       0.1621
    106  C         -8.7710   -6.6720   -7.8080 C.2    80  HIS80       0.2264
    107  O         -8.5570   -5.6740   -7.1200 O.2    80  HIS80      -0.2867
    108  CB        -6.7610   -7.3760   -9.1220 C.3    80  HIS80       0.0745
    109  CG        -5.5160   -8.2060   -9.1680 C.ar   80  HIS80       0.0817
    110  ND1       -4.6750   -8.2430  -10.2610 N.ar   80  HIS80      -0.2268
    111  CD2       -4.9680   -9.0330   -8.2460 C.ar   80  HIS80       0.1154
    112  CE1       -3.6660   -9.0580  -10.0100 C.ar   80  HIS80       0.1986
    113  NE2       -3.8200   -9.5490   -8.7950 N.ar   80  HIS80      -0.2212
    114  N         -9.7140   -6.4690   -4.0440 N.3    83  ILE83      -0.1231
    115  CA        -8.6150   -5.8800   -3.2880 C.3    83  ILE83       0.1692
    116  C         -8.3890   -4.4250   -3.6880 C.2    83  ILE83       0.2592
    117  O         -8.3390   -3.5360   -2.8390 O.2    83  ILE83      -0.2718
    118  CB        -7.3080   -6.6660   -3.5000 C.3    83  ILE83       0.0266
    119  CG1       -7.5380   -8.1520   -3.2230 C.3    83  ILE83       0.0019
    120  CG2       -6.2040   -6.1150   -2.6060 C.3    83  ILE83       0.0020
    121  CD1       -6.2800   -8.9830   -3.3140 C.3    83  ILE83       0.0001
    122  N         -8.2520   -4.1930   -4.9880 N.am   84  TYR84      -0.1976
    123  CA        -8.0290   -2.8500   -5.5150 C.3    84  TYR84       0.1639
    124  C         -9.0420   -1.8550   -4.9500 C.2    84  TYR84       0.2290
    125  O         -8.7460   -0.6680   -4.8010 O.2    84  TYR84      -0.2864
    126  CB        -8.1170   -2.8740   -7.0420 C.3    84  TYR84       0.0560
    127  CG        -7.6870   -1.5840   -7.7030 C.ar   84  TYR84      -0.0198
    128  CD1       -8.5630   -0.5110   -7.8130 C.ar   84  TYR84      -0.0009
    129  CD2       -6.4070   -1.4430   -8.2240 C.ar   84  TYR84      -0.0009
    130  CE1       -8.1750    0.6660   -8.4230 C.ar   84  TYR84       0.0417
    131  CE2       -6.0120   -0.2680   -8.8350 C.ar   84  TYR84       0.0417
    132  CZ        -6.9000    0.7840   -8.9320 C.ar   84  TYR84       0.1957
    133  OH        -6.5120    1.9580   -9.5410 O.3    84  TYR84      -0.2866
@<TRIPOS>BOND
     1   110   112   ar
     2   110   109   ar
     3   112   113   ar
     4   133   132    1
     5   109   108    1
     6   109   111   ar
     7   108   105    1
     8   132   131   ar
     9   132   130   ar
    10   131   129   ar
    11   113   111   ar
    12   130   128   ar
    13   104   105    1
    14   129   127   ar
    15   105   106    1
    16   128   127   ar
    17   106   107    2
    18   127   126    1
    19   126   123    1
    20   100    99    2
    21     7     6    1
    22    99    98    1
    23    64    66   ar
    24    64    63   ar
    25    66    67   ar
    26   123   122    1
    27   123   124    1
    28    63    62    1
    29    63    65   ar
    30    62    59    1
    31    67    65   ar
    32     6     5    1
    33     6     8    1
    34     5     2    1
    35   122   116   am
    36   124   125    2
    37    98   101    1
    38    98    97    1
    39   103   101    1
    40   101   102    1
    41    56    55    2
    42   114   115    1
    43    59    58    1
    44    59    60    1
    45     4     3    2
    46     3     2    1
    47     2     1    1
    48    53    54    1
    49    53    50    1
    50    58    51   am
    51   116   115    1
    52   116   117    2
    53   118   115    1
    54   118   119    1
    55   118   120    1
    56   121   119    1
    57    55    54    1
    58    55    57   am
    59    61    60    2
    60    51    50    1
    61    51    52    2
    62    49    50    1
    63    36    35    1
    64    18    17    1
    65    18    19    1
    66    17    11   am
    67    35    34    1
    68    19    20    2
    69    88    89    2
    70    88    87    1
    71    16    14    1
    72    92    94   ar
    73    92    91   ar
    74     9    10    1
    75    13    14    1
    76    13    10    1
    77    11    10    1
    78    11    12    2
    79    94    96   ar
    80    74    72    1
    81    28    26    1
    82    87    90    1
    83    87    86    1
    84    14    15    1
    85    90    91    1
    86    33    34    1
    87    33    30    1
    88    68    69    1
    89    91    93   ar
    90    41    42    1
    91    41    38    1
    92    42    43   ar
    93    42    44   ar
    94    96    95   ar
    95    43    45   ar
    96    44    46   ar
    97    26    25    1
    98    72    69    1
    99    72    73    1
   100    25    27    1
   101    25    22    1
   102    45    47   ar
   103    46    47   ar
   104    30    29    1
   105    30    31    1
   106    29    23   am
   107    47    48    1
   108    69    70    1
   109    85    83   ar
   110    85    84   ar
   111    83    81   ar
   112    93    95   ar
   113    38    39    1
   114    38    37    1
   115    84    82   ar
   116    21    22    1
   117    81    80   ar
   118    39    40    2
   119    22    23    1
   120    23    24    2
   121    82    80   ar
   122    71    70    2
   123    31    32    2
   124    80    79    1
   125    79    76    1
   126    78    77    2
   127    76    77    1
   128    76    75    1
