@<TRIPOS>MOLECULE
tmp/1tu1B00.pdb
 105 100 0 0 0
SMALL
GASTEIGER

@<TRIPOS>ATOM
      1  N         50.4420    1.3610    6.2070 N.3    77  TRP77      -0.1241
      2  CA        50.5310    1.9770    4.8830 C.3    77  TRP77       0.1605
      3  C         50.9010    3.4280    4.9970 C.2    77  TRP77       0.2264
      4  O         50.2100    4.1970    5.6780 O.2    77  TRP77      -0.2867
      5  CB        49.2100    1.8960    4.1120 C.3    77  TRP77       0.0550
      6  CG        48.7850    0.5380    3.6270 C.ar   77  TRP77       0.0003
      7  CD1       49.3720   -0.6680    3.8790 C.ar   77  TRP77       0.0946
      8  CD2       47.6550    0.2620    2.8030 C.ar   77  TRP77       0.0152
      9  NE1       48.6700   -1.6770    3.2700 N.ar   77  TRP77      -0.2442
     10  CE2       47.6040   -1.1320    2.6070 C.ar   77  TRP77       0.0810
     11  CE3       46.6660    1.0600    2.2080 C.ar   77  TRP77       0.0012
     12  CZ2       46.6110   -1.7490    1.8430 C.ar   77  TRP77       0.0191
     13  CZ3       45.6790    0.4450    1.4390 C.ar   77  TRP77       0.0001
     14  CH2       45.6620   -0.9470    1.2680 C.ar   77  TRP77       0.0015
     15  N         50.8540    6.8310    3.3150 N.3    79  ILE79      -0.1245
     16  CA        50.0170    7.4930    2.3390 C.3    79  ILE79       0.1561
     17  C         50.1090    9.0050    2.4920 C.2    79  ILE79       0.2260
     18  O         50.7120    9.5030    3.4450 O.2    79  ILE79      -0.2867
     19  CB        48.5740    6.9870    2.4760 C.3    79  ILE79       0.0252
     20  CG1       48.0560    7.1630    3.9020 C.3    79  ILE79       0.0019
     21  CG2       48.5280    5.5000    2.0940 C.3    79  ILE79       0.0019
     22  CD1       46.5770    6.9180    4.0430 C.3    79  ILE79       0.0001
     23  N         47.9510   12.6610    2.2160 N.3    81  ILE81      -0.1245
     24  CA        46.6350   13.2970    2.2440 C.3    81  ILE81       0.1561
     25  C         46.8040   14.7650    1.9830 C.2    81  ILE81       0.2260
     26  O         47.1600   15.5200    2.8770 O.2    81  ILE81      -0.2867
     27  CB        45.9530   13.0490    3.6000 C.3    81  ILE81       0.0252
     28  CG1       45.6120   11.5690    3.7270 C.3    81  ILE81       0.0019
     29  CG2       44.7170   13.9340    3.7790 C.3    81  ILE81       0.0019
     30  CD1       45.1350   11.1920    5.0910 C.3    81  ILE81       0.0001
     31  N         48.4460    4.8520    7.8300 N.3    88  LEU88      -0.1245
     32  CA        47.3330    4.0110    8.2740 C.3    88  LEU88       0.1561
     33  C         47.8620    2.7410    8.9400 C.2    88  LEU88       0.2260
     34  O         48.7410    2.0640    8.3830 O.2    88  LEU88      -0.2867
     35  CB        46.4580    3.6630    7.0760 C.3    88  LEU88       0.0270
     36  CG        45.2360    2.7420    7.2060 C.3    88  LEU88       0.0019
     37  CD1       44.2460    3.0810    6.0860 C.3    88  LEU88       0.0001
     38  CD2       45.6010    1.2540    7.1110 C.3    88  LEU88       0.0001
     39  N         41.2890    0.8070   12.7760 N.3   103  ARG103     -0.1245
     40  CA        41.8860    1.3730   11.5880 C.3   103  ARG103      0.1563
     41  C         42.1740    2.8240   11.9210 C.2   103  ARG103      0.2260
     42  O         41.2720    3.6530   12.0850 O.2   103  ARG103     -0.2867
     43  CB        40.9340    1.2190   10.4290 C.3   103  ARG103      0.0307
     44  CG        41.3880    1.9500    9.1760 C.3   103  ARG103      0.0489
     45  CD        40.6970    1.4540    7.9450 C.3   103  ARG103      0.2205
     46  NE        41.1390    0.1190    7.5420 N.pl3 103  ARG103     -0.0865
     47  CZ        40.6660   -0.4980    6.4780 C.cat 103  ARG103      0.5346
     48  NH1       39.7030    0.0580    5.7400 N.pl3 103  ARG103      0.1354
     49  NH2       41.1170   -1.6940    6.1670 N.pl3 103  ARG103      0.1354
     50  N         44.4650    6.3440   11.3590 N.3   105  VAL105     -0.1245
     51  CA        45.2850    7.1560   10.4650 C.3   105  VAL105      0.1561
     52  C         45.8720    8.3590   11.1970 C.2   105  VAL105      0.2260
     53  O         45.1430    9.1520   11.8010 O.2   105  VAL105     -0.2867
     54  CB        44.5020    7.6000    9.2240 C.3   105  VAL105      0.0252
     55  CG1       45.4220    8.3110    8.2390 C.3   105  VAL105      0.0019
     56  CG2       43.8730    6.3940    8.5350 C.3   105  VAL105      0.0019
     57  N         33.8220   -0.4090    6.2480 N.3   129  GLU129     -0.1245
     58  CA        34.8670    0.1380    5.3800 C.3   129  GLU129      0.1567
     59  C         34.3800    1.1280    4.3190 C.2   129  GLU129      0.2260
     60  O         34.9850    2.1640    4.1460 O.2   129  GLU129     -0.2867
     61  CB        35.6380   -1.0090    4.7140 C.3   129  GLU129      0.0388
     62  CG        36.6570   -0.5710    3.6820 C.3   129  GLU129      0.1160
     63  CD        37.6110   -1.6980    3.3740 C.2   129  GLU129      0.3649
     64  OE1       37.1110   -2.8110    3.0440 O.co2 129  GLU129     -0.2457
     65  OE2       38.8310   -1.4870    3.5200 O.co2 129  GLU129     -0.2457
     66  N         33.6400    4.4500    6.0660 N.3   132  TRP132     -0.1227
     67  CA        34.9270    4.9630    6.5380 C.3   132  TRP132      0.1737
     68  C         35.7300    5.5870    5.3870 C.2   132  TRP132      0.2595
     69  O         36.2490    6.6980    5.4930 O.2   132  TRP132     -0.2718
     70  CB        35.7270    3.8440    7.1720 C.3   132  TRP132      0.0564
     71  CG        37.1140    4.2410    7.4710 C.ar  132  TRP132      0.0003
     72  CD1       37.5660    4.8500    8.6120 C.ar  132  TRP132      0.0946
     73  CD2       38.2480    4.0880    6.6230 C.ar  132  TRP132      0.0152
     74  NE1       38.9150    5.0700    8.5210 N.ar  132  TRP132     -0.2442
     75  CE2       39.3610    4.6180    7.3090 C.ar  132  TRP132      0.0810
     76  CE3       38.4460    3.5400    5.3440 C.ar  132  TRP132      0.0012
     77  CZ2       40.6410    4.6280    6.7640 C.ar  132  TRP132      0.0191
     78  CZ3       39.7260    3.5530    4.8010 C.ar  132  TRP132      0.0001
     79  CH2       40.8030    4.0990    5.5080 C.ar  132  TRP132      0.0015
     80  N         35.7920    4.8540    4.2830 N.am  133  LYS133     -0.1980
     81  CA        36.5880    5.2500    3.1310 C.3   133  LYS133      0.1596
     82  C         36.0360    6.5440    2.5280 C.2   133  LYS133      0.2287
     83  O         36.8070    7.4400    2.2130 O.2   133  LYS133     -0.2864
     84  CB        36.6790    4.0930    2.1180 C.3   133  LYS133      0.0298
     85  CG        37.9760    4.0220    1.3100 C.3   133  LYS133      0.0038
     86  CD        37.8970    2.9610    0.1780 C.3   133  LYS133      0.0206
     87  CE        37.7950    1.5290    0.7340 C.3   133  LYS133      0.1093
     88  NZ        37.4070    0.4850   -0.2860 N.3   133  LYS133     -0.1314
     89  N         37.1010    9.3870    4.8160 N.3   136  MET136     -0.1230
     90  CA        38.5520    9.6300    4.8220 C.3   136  MET136      0.1702
     91  C         39.0440   10.2160    3.4900 C.2   136  MET136      0.2592
     92  O         39.9570   11.0490    3.4700 O.2   136  MET136     -0.2718
     93  CB        39.3150    8.3470    5.1510 C.3   136  MET136      0.0401
     94  CG        39.4520    8.0600    6.6570 C.3   136  MET136      0.0596
     95  SD        40.0490    9.4600    7.6630 S.3   136  MET136     -0.1393
     96  CE        41.6950    9.6920    7.0130 C.3   136  MET136      0.0692
     97  N         38.4000    9.8270    2.3960 N.am  137  GLN137     -0.1979
     98  CA        38.7560   10.3180    1.0560 C.3   137  GLN137      0.1601
     99  C         38.3710   11.7730    0.8360 C.2   137  GLN137      0.2287
    100  O         38.8320   12.3990   -0.1140 O.2   137  GLN137     -0.2864
    101  CB        38.0710    9.4590   -0.0080 C.3   137  GLN137      0.0394
    102  CG        38.6990    8.1220   -0.0760 C.3   137  GLN137      0.0908
    103  CD        38.1480    7.2500   -1.1610 C.2   137  GLN137      0.2608
    104  OE1       36.9710    7.3650   -1.5360 O.2   137  GLN137     -0.2717
    105  NE2       38.9740    6.3310   -1.6320 N.am  137  GLN137     -0.0878
@<TRIPOS>BOND
     1   105   103   am
     2   104   103    2
     3   103   102    1
     4    88    87    1
     5   100    99    2
     6   102   101    1
     7   101    98    1
     8    86    87    1
     9    86    85    1
    10    99    98    1
    11    98    97    1
    12    14    13   ar
    13    14    12   ar
    14    85    84    1
    15    13    11   ar
    16    12    10   ar
    17    25    24    1
    18    25    26    2
    19    21    19    1
    20    84    81    1
    21    11     8   ar
    22    83    82    2
    23    23    24    1
    24    24    27    1
    25    16    19    1
    26    16    17    1
    27    16    15    1
    28    97    91   am
    29    19    20    1
    30    17    18    2
    31    82    81    1
    32    10     8   ar
    33    10     9   ar
    34     8     6   ar
    35    64    63   ar
    36    81    80    1
    37     9     7   ar
    38    63    65   ar
    39    63    62    1
    40    92    91    2
    41    91    90    1
    42    27    28    1
    43    27    29    1
    44     6     7   ar
    45     6     5    1
    46    62    61    1
    47    28    30    1
    48    20    22    1
    49     5     2    1
    50    60    59    2
    51    80    68   am
    52    59    58    1
    53    61    58    1
    54    78    76   ar
    55    78    79   ar
    56    89    90    1
    57    90    93    1
    58     2     3    1
    59     2     1    1
    60     3     4    2
    61    93    94    1
    62    76    73   ar
    63    58    57    1
    64    68    69    2
    65    68    67    1
    66    79    77   ar
    67    48    47    1
    68    66    67    1
    69    37    36    1
    70    49    47    1
    71    47    46    2
    72    67    70    1
    73    73    75   ar
    74    73    71   ar
    75    94    95    1
    76    77    75   ar
    77    96    95    1
    78    35    36    1
    79    35    32    1
    80    38    36    1
    81    70    71    1
    82    75    74   ar
    83    71    72   ar
    84    46    45    1
    85    31    32    1
    86    45    44    1
    87    55    54    1
    88    32    33    1
    89    34    33    2
    90    74    72   ar
    91    56    54    1
    92    44    43    1
    93    54    51    1
    94    43    40    1
    95    51    52    1
    96    51    50    1
    97    52    53    2
    98    40    41    1
    99    40    39    1
   100    41    42    2
