@<TRIPOS>MOLECULE
tmp/1tu1A00.pdb
 93 86 0 0 0
SMALL
GASTEIGER

@<TRIPOS>ATOM
      1  N         29.6160   20.9220   23.9010 N.3    43  SER43      -0.1217
      2  CA        28.9430   19.6700   23.6120 C.3    43  SER43       0.1889
      3  C         27.6730   19.9530   22.7680 C.2    43  SER43       0.2288
      4  O         27.3570   21.1150   22.5000 O.2    43  SER43      -0.2866
      5  CB        28.6030   18.9210   24.8890 C.3    43  SER43       0.2089
      6  OG        27.7480   19.6750   25.7270 O.3    43  SER43      -0.2183
      7  N         23.5270   18.4500   21.7890 N.3    45  ASP45      -0.1239
      8  CA        22.4000   17.6620   22.2820 C.3    45  ASP45       0.1674
      9  C         21.3130   17.6920   21.1920 C.2    45  ASP45       0.2266
     10  O         20.6840   18.7180   20.9790 O.2    45  ASP45      -0.2867
     11  CB        21.9190   18.2650   23.6030 C.3    45  ASP45       0.1410
     12  CG        20.7940   17.4500   24.2880 C.2    45  ASP45       0.3668
     13  OD1       20.2450   16.5000   23.6990 O.co2  45  ASP45      -0.2456
     14  OD2       20.4150   17.7240   25.4500 O.co2  45  ASP45      -0.2456
     15  N         16.0830   20.0480   30.8630 N.3    60  GLN60      -0.1245
     16  CA        17.4670   20.0130   31.3400 C.3    60  GLN60       0.1566
     17  C         17.5170   20.3580   32.8250 C.2    60  GLN60       0.2260
     18  O         18.2080   19.7020   33.5920 O.2    60  GLN60      -0.2867
     19  CB        18.3420   20.9850   30.5540 C.3    60  GLN60       0.0367
     20  CG        18.3930   20.6670   29.0720 C.3    60  GLN60       0.0905
     21  CD        18.7010   19.2170   28.8150 C.2    60  GLN60       0.2608
     22  OE1       19.6970   18.6930   29.3380 O.2    60  GLN60      -0.2717
     23  NE2       17.8660   18.5510   28.0230 N.am   60  GLN60      -0.0878
     24  N         16.1280   17.5290   34.7940 N.3    63  ASN63      -0.1225
     25  CA        17.1320   16.4710   34.8460 C.3    63  ASN63       0.1785
     26  C         18.2100   16.7830   35.8780 C.2    63  ASN63       0.2597
     27  O         18.6620   15.8870   36.5690 O.2    63  ASN63      -0.2718
     28  CB        17.7980   16.2640   33.4900 C.3    63  ASN63       0.1169
     29  CG        16.8880   15.6110   32.4910 C.2    63  ASN63       0.2627
     30  OD1       15.8490   15.0300   32.8440 O.2    63  ASN63      -0.2716
     31  ND2       17.2770   15.6880   31.2250 N.am   63  ASN63      -0.0877
     32  N         18.6110   18.0480   35.9800 N.am   64  ALA64      -0.1979
     33  CA        19.6840   18.4430   36.8870 C.3    64  ALA64       0.1597
     34  C         19.2270   18.3570   38.3470 C.2    64  ALA64       0.2287
     35  O         19.9770   17.9150   39.2200 O.2    64  ALA64      -0.2864
     36  CB        20.1580   19.8290   36.5680 C.3    64  ALA64       0.0319
     37  N         18.9010   14.4220   39.1030 N.3    67  GLN67      -0.1231
     38  CA        20.0320   13.5150   38.8950 C.3    67  GLN67       0.1698
     39  C         21.3440   13.9680   39.5310 C.2    67  GLN67       0.2592
     40  O         22.2410   13.1490   39.6700 O.2    67  GLN67      -0.2718
     41  CB        20.2590   13.2510   37.3960 C.3    67  GLN67       0.0381
     42  CG        19.1970   12.3420   36.7710 C.3    67  GLN67       0.0905
     43  CD        19.2840   12.2540   35.2470 C.2    67  GLN67       0.2608
     44  OE1       19.4560   11.1660   34.6860 O.2    67  GLN67      -0.2717
     45  NE2       19.1410   13.3880   34.5790 N.am   67  GLN67      -0.0878
     46  N         21.4690   15.2440   39.8890 N.am   68  LEU68      -0.1980
     47  CA        22.7200   15.7760   40.4280 C.3    68  LEU68       0.1596
     48  C         22.5930   16.0560   41.9280 C.2    68  LEU68       0.2287
     49  O         21.9370   17.0220   42.3290 O.2    68  LEU68      -0.2864
     50  CB        23.1490   17.0540   39.6990 C.3    68  LEU68       0.0297
     51  CG        23.3400   16.9910   38.1750 C.3    68  LEU68       0.0022
     52  CD1       23.6760   18.3590   37.6500 C.3    68  LEU68       0.0001
     53  CD2       24.4270   16.0030   37.7970 C.3    68  LEU68       0.0001
     54  N         24.8220   27.2580   38.1650 N.3    91  TYR91      -0.1241
     55  CA        24.4370   26.3420   39.2160 C.3    91  TYR91       0.1605
     56  C         25.6110   25.5980   39.8260 C.2    91  TYR91       0.2264
     57  O         26.7040   25.5690   39.2620 O.2    91  TYR91      -0.2867
     58  CB        23.3850   25.3670   38.7320 C.3    91  TYR91       0.0534
     59  CG        23.7660   24.3670   37.6380 C.ar   91  TYR91      -0.0201
     60  CD1       24.1830   23.0700   37.9600 C.ar   91  TYR91      -0.0009
     61  CD2       23.5930   24.6800   36.2850 C.ar   91  TYR91      -0.0009
     62  CE1       24.4750   22.1410   36.9770 C.ar   91  TYR91       0.0417
     63  CE2       23.8800   23.7630   35.2890 C.ar   91  TYR91       0.0417
     64  CZ        24.3180   22.4970   35.6290 C.ar   91  TYR91       0.1957
     65  OH        24.5920   21.5780   34.6420 O.3    91  TYR91      -0.2866
     66  N         26.6350   27.2310   32.4260 N.3   104  GLN104     -0.1245
     67  CA        26.2430   26.3760   31.3100 C.3   104  GLN104      0.1566
     68  C         25.2730   27.1090   30.3720 C.2   104  GLN104      0.2260
     69  O         24.1960   27.5360   30.7920 O.2   104  GLN104     -0.2867
     70  CB        25.6080   25.1060   31.8560 C.3   104  GLN104      0.0367
     71  CG        25.4410   23.9870   30.8560 C.3   104  GLN104      0.0905
     72  CD        25.1870   22.6540   31.5090 C.2   104  GLN104      0.2608
     73  OE1       24.2070   22.4840   32.2370 O.2   104  GLN104     -0.2717
     74  NE2       26.0870   21.6990   31.2760 N.am  104  GLN104     -0.0878
     75  N         22.9730   27.0630   26.9400 N.3   106  PHE106     -0.1241
     76  CA        22.3210   26.2460   25.9330 C.3   106  PHE106      0.1605
     77  C         21.9550   27.1660   24.8090 C.2   106  PHE106      0.2264
     78  O         21.2900   28.1900   25.0390 O.2   106  PHE106     -0.2867
     79  CB        21.0750   25.6060   26.5140 C.3   106  PHE106      0.0534
     80  CG        21.3350   24.7040   27.6630 C.ar  106  PHE106     -0.0203
     81  CD1       21.4040   23.3350   27.4710 C.ar  106  PHE106     -0.0042
     82  CD2       21.5130   25.2080   28.9460 C.ar  106  PHE106     -0.0042
     83  CE1       21.6270   22.4690   28.5370 C.ar  106  PHE106     -0.0003
     84  CE2       21.7370   24.3400   30.0360 C.ar  106  PHE106     -0.0003
     85  CZ        21.8030   22.9720   29.8280 C.ar  106  PHE106     -0.0000
     86  N         25.9050   23.4560   23.4590 N.3   115  ILE115     -0.1245
     87  CA        26.0250   23.6650   24.8970 C.3   115  ILE115      0.1561
     88  C         27.4600   24.0070   25.2360 C.2   115  ILE115      0.2260
     89  O         28.3820   23.2910   24.8090 O.2   115  ILE115     -0.2867
     90  CB        25.6010   22.4250   25.6390 C.3   115  ILE115      0.0252
     91  CG1       24.1420   22.1030   25.3130 C.3   115  ILE115      0.0019
     92  CG2       25.7620   22.6120   27.1880 C.3   115  ILE115      0.0019
     93  CD1       23.6120   20.8310   25.9150 C.3   115  ILE115      0.0001
@<TRIPOS>BOND
     1    10     9    2
     2     9     8    1
     3     7     8    1
     4     8    11    1
     5     4     3    2
     6     3     2    1
     7    86    87    1
     8    11    12    1
     9     2     1    1
    10     2     5    1
    11    13    12   ar
    12    12    14   ar
    13    89    88    2
    14    77    78    2
    15    77    76    1
    16     5     6    1
    17    87    88    1
    18    87    90    1
    19    91    90    1
    20    91    93    1
    21    90    92    1
    22    76    79    1
    23    76    75    1
    24    79    80    1
    25    81    80   ar
    26    81    83   ar
    27    80    82   ar
    28    23    21   am
    29    83    85   ar
    30    21    20    1
    31    21    22    2
    32    82    84   ar
    33    20    19    1
    34    85    84   ar
    35    68    69    2
    36    68    67    1
    37    19    16    1
    38    71    72    1
    39    71    70    1
    40    15    16    1
    41    31    29   am
    42    74    72   am
    43    67    70    1
    44    67    66    1
    45    16    17    1
    46    72    73    2
    47    29    30    2
    48    29    28    1
    49    17    18    2
    50    28    25    1
    51    45    43   am
    52    65    64    1
    53    44    43    2
    54    24    25    1
    55    25    26    1
    56    43    42    1
    57    63    64   ar
    58    63    61   ar
    59    64    62   ar
    60    26    32   am
    61    26    27    2
    62    32    33    1
    63    61    59   ar
    64    36    33    1
    65    42    41    1
    66    33    34    1
    67    62    60   ar
    68    41    38    1
    69    59    60   ar
    70    59    58    1
    71    52    51    1
    72    53    51    1
    73    54    55    1
    74    51    50    1
    75    34    35    2
    76    58    55    1
    77    38    37    1
    78    38    39    1
    79    55    56    1
    80    57    56    2
    81    39    40    2
    82    39    46   am
    83    50    47    1
    84    46    47    1
    85    47    48    1
    86    48    49    2
