@<TRIPOS>MOLECULE
tmp/1tu5A00.pdb
 88 80 0 0 0
SMALL
GASTEIGER

@<TRIPOS>ATOM
      1  N         63.5020  -14.8340   64.3400 N.3    22  LEU22      -0.1245
      2  CA        63.0770  -16.1650   63.9070 C.3    22  LEU22       0.1561
      3  C         64.1960  -16.9760   63.2570 C.2    22  LEU22       0.2260
      4  O         63.9890  -18.1100   62.8180 O.2    22  LEU22      -0.2867
      5  CB        61.8810  -16.0720   62.9450 C.3    22  LEU22       0.0270
      6  CG        60.5380  -15.6070   63.5290 C.3    22  LEU22       0.0019
      7  CD1       59.4890  -15.5460   62.4400 C.3    22  LEU22       0.0001
      8  CD2       60.1040  -16.5500   64.6330 C.3    22  LEU22       0.0001
      9  N         54.2430  -21.6760   59.5180 N.3    73  PHE73      -0.1241
     10  CA        55.3240  -22.5540   59.9620 C.3    73  PHE73       0.1605
     11  C         55.1350  -23.9460   59.3830 C.2    73  PHE73       0.2264
     12  O         54.5930  -24.8210   60.0310 O.2    73  PHE73      -0.2867
     13  CB        55.4110  -22.6260   61.5050 C.3    73  PHE73       0.0534
     14  CG        55.9870  -21.3810   62.1540 C.ar   73  PHE73      -0.0203
     15  CD1       55.1800  -20.5280   62.8900 C.ar   73  PHE73      -0.0042
     16  CD2       57.3380  -21.0840   62.0490 C.ar   73  PHE73      -0.0042
     17  CE1       55.7090  -19.3890   63.5230 C.ar   73  PHE73      -0.0003
     18  CE2       57.8710  -19.9650   62.6660 C.ar   73  PHE73      -0.0003
     19  CZ        57.0520  -19.1140   63.4080 C.ar   73  PHE73      -0.0000
     20  N         58.0670  -28.1800   59.9400 N.3    76  GLN76      -0.1245
     21  CA        58.1010  -28.7840   61.2730 C.3    76  GLN76       0.1566
     22  C         57.1440  -29.9800   61.3020 C.2    76  GLN76       0.2260
     23  O         56.2830  -30.1050   60.4350 O.2    76  GLN76      -0.2867
     24  CB        57.7090  -27.7410   62.3560 C.3    76  GLN76       0.0367
     25  CG        56.3190  -27.0540   62.2020 C.3    76  GLN76       0.0905
     26  CD        56.0670  -25.9440   63.2440 C.2    76  GLN76       0.2608
     27  OE1       56.9760  -25.2100   63.6180 O.2    76  GLN76      -0.2717
     28  NE2       54.8250  -25.8160   63.6940 N.am   76  GLN76      -0.0878
     29  N         51.8740  -25.1720   61.4150 N.3    80  ASN80      -0.1240
     30  CA        50.7390  -24.3830   61.8480 C.3    80  ASN80       0.1653
     31  C         50.9220  -22.9770   61.2900 C.2    80  ASN80       0.2266
     32  O         51.9530  -22.6650   60.6690 O.2    80  ASN80      -0.2867
     33  CB        50.6490  -24.3630   63.3850 C.3    80  ASN80       0.1155
     34  CG        51.7940  -23.6060   64.0420 C.2    80  ASN80       0.2627
     35  OD1       52.2080  -22.5450   63.5610 O.2    80  ASN80      -0.2716
     36  ND2       52.3060  -24.1150   65.1600 N.am   80  ASN80      -0.0877
     37  N         50.8130  -19.0440   62.5650 N.3    82  THR82      -0.1218
     38  CA        50.9080  -18.2820   63.8110 C.3    82  THR82       0.1862
     39  C         50.7690  -16.7720   63.6210 C.2    82  THR82       0.2287
     40  O         51.3170  -16.2150   62.6640 O.2    82  THR82      -0.2866
     41  CB        52.2830  -18.5530   64.4770 C.3    82  THR82       0.1770
     42  OG1       52.3210  -19.9040   64.9510 O.3    82  THR82      -0.2211
     43  CG2       52.5420  -17.5940   65.6180 C.3    82  THR82       0.0375
     44  N         51.5720  -13.1480   65.2410 N.3    84  LEU84      -0.1245
     45  CA        52.4680  -12.5500   66.2150 C.3    84  LEU84       0.1561
     46  C         52.2540  -11.0550   66.2490 C.2    84  LEU84       0.2260
     47  O         52.2220  -10.4080   65.2040 O.2    84  LEU84      -0.2867
     48  CB        53.9310  -12.8220   65.8490 C.3    84  LEU84       0.0270
     49  CG        54.3450  -14.2580   65.5810 C.3    84  LEU84       0.0019
     50  CD1       55.6940  -14.2850   64.9020 C.3    84  LEU84       0.0001
     51  CD2       54.3840  -15.0200   66.8970 C.3    84  LEU84       0.0001
     52  N         57.8290   -9.9460   70.6440 N.3    95  MET95      -0.1245
     53  CA        57.1380  -10.7220   69.6400 C.3    95  MET95       0.1570
     54  C         56.1970  -11.6630   70.3990 C.2    95  MET95       0.2261
     55  O         56.6390  -12.6340   70.9680 O.2    95  MET95      -0.2867
     56  CB        58.1860  -11.5030   68.9040 C.3    95  MET95       0.0387
     57  CG        57.7230  -12.2810   67.7770 C.3    95  MET95       0.0595
     58  SD        59.1060  -13.3010   67.3230 S.3    95  MET95      -0.1393
     59  CE        59.6100  -12.4950   65.8200 C.3    95  MET95       0.0692
     60  N         53.1070  -14.3900   70.5140 N.3    97  ASP97      -0.1239
     61  CA        52.3040  -15.3470   69.7910 C.3    97  ASP97       0.1674
     62  C         50.9260  -15.2800   70.4330 C.2    97  ASP97       0.2266
     63  O         50.7540  -15.6830   71.5790 O.2    97  ASP97      -0.2867
     64  CB        52.9060  -16.7450   69.9430 C.3    97  ASP97       0.1410
     65  CG        52.0600  -17.8210   69.2850 C.2    97  ASP97       0.3668
     66  OD1       52.4560  -19.0060   69.3250 O.co2  97  ASP97      -0.2456
     67  OD2       50.9960  -17.4800   68.7300 O.co2  97  ASP97      -0.2456
     68  N         48.0380  -16.4890   68.7230 N.3    99  THR99      -0.1203
     69  CA        47.1790  -17.4310   67.9990 C.3    99  THR99       0.1994
     70  C         46.2220  -18.1920   68.9010 C.2    99  THR99       0.2617
     71  O         45.0080  -18.2460   68.6650 O.2    99  THR99      -0.2717
     72  CB        47.9770  -18.5360   67.2620 C.3    99  THR99       0.1784
     73  OG1       49.0780  -17.9610   66.5500 O.3    99  THR99      -0.2211
     74  CG2       47.0710  -19.2600   66.2600 C.3    99  THR99       0.0376
     75  N         46.7800  -18.7940   69.9360 N.am  100  VAL100     -0.1979
     76  CA        45.9680  -19.6030   70.8500 C.3   100  VAL100      0.1595
     77  C         44.9930  -18.7630   71.6840 C.2   100  VAL100      0.2287
     78  O         43.8760  -19.1910   71.9270 O.2   100  VAL100     -0.2864
     79  CB        46.8380  -20.4740   71.8180 C.3   100  VAL100      0.0276
     80  CG1       45.9620  -21.0630   72.9330 C.3   100  VAL100      0.0022
     81  CG2       47.4960  -21.6170   71.0480 C.3   100  VAL100      0.0022
     82  N         45.6580  -24.0460   68.1060 N.3   106  PRO106     -0.2116
     83  CA        46.4570  -23.8030   66.8950 C.3   106  PRO106      0.1372
     84  C         45.6130  -23.7010   65.6110 C.2   106  PRO106      0.2244
     85  O         44.5600  -24.3250   65.4960 O.2   106  PRO106     -0.2868
     86  CB        47.3990  -25.0180   66.8280 C.3   106  PRO106      0.0268
     87  CG        47.1730  -25.7750   68.1210 C.3   106  PRO106      0.0207
     88  CD        45.7870  -25.4380   68.5640 C.3   106  PRO106      0.0892
@<TRIPOS>BOND
     1    11    10    1
     2    11    12    2
     3     9    10    1
     4    20    21    1
     5    10    13    1
     6    23    22    2
     7    32    31    2
     8    21    22    1
     9    21    24    1
    10    31    30    1
    11    29    30    1
    12    13    14    1
    13    30    33    1
    14    16    14   ar
    15    16    18   ar
    16    14    15   ar
    17    25    24    1
    18    25    26    1
    19     7     6    1
    20    37    38    1
    21    40    39    2
    22    18    19   ar
    23     4     3    2
    24    15    17   ar
    25     5     6    1
    26     5     2    1
    27    26    27    2
    28    26    28   am
    29     3     2    1
    30    33    34    1
    31    19    17   ar
    32     6     8    1
    33    35    34    2
    34    39    38    1
    35    38    41    1
    36     2     1    1
    37    34    36   am
    38    41    42    1
    39    41    43    1
    40    50    49    1
    41    47    46    2
    42    44    45    1
    43    85    84    2
    44    49    48    1
    45    49    51    1
    46    84    83    1
    47    59    58    1
    48    48    45    1
    49    45    46    1
    50    74    72    1
    51    73    72    1
    52    86    83    1
    53    86    87    1
    54    83    82    1
    55    72    69    1
    56    58    57    1
    57    57    56    1
    58    69    68    1
    59    69    70    1
    60    82    88    1
    61    87    88    1
    62    71    70    2
    63    67    65   ar
    64    70    75   am
    65    56    53    1
    66    65    66   ar
    67    65    64    1
    68    53    54    1
    69    53    52    1
    70    61    64    1
    71    61    62    1
    72    61    60    1
    73    75    76    1
    74    54    55    2
    75    62    63    2
    76    76    77    1
    77    76    79    1
    78    81    79    1
    79    77    78    2
    80    79    80    1
