@<TRIPOS>MOLECULE
tmp/1tu6B01.pdb
 162 162 0 0 0
SMALL
GASTEIGER

@<TRIPOS>ATOM
      1  N         54.4730  -71.3720  141.6400 N.3    19  GLN19      -0.1231
      2  CA        55.4860  -71.4890  140.5930 C.3    19  GLN19       0.1698
      3  C         56.9480  -71.4890  141.0380 C.2    19  GLN19       0.2593
      4  O         57.8440  -71.6570  140.2150 O.2    19  GLN19      -0.2718
      5  CB        55.2760  -70.3960  139.5330 C.3    19  GLN19       0.0381
      6  CG        55.6130  -69.0170  140.0920 C.3    19  GLN19       0.0905
      7  CD        55.4830  -67.9920  138.9740 C.2    19  GLN19       0.2608
      8  OE1       54.4220  -67.3960  138.7740 O.2    19  GLN19      -0.2717
      9  NE2       56.5640  -67.8040  138.2190 N.am   19  GLN19      -0.0878
     10  N         57.2050  -71.3080  142.3270 N.am   20  GLY20      -0.1942
     11  CA        58.5910  -71.3100  142.7680 C.3    20  GLY20       0.2014
     12  C         59.3760  -70.0780  142.3470 C.2    20  GLY20       0.2639
     13  O         58.8920  -68.9530  142.4950 O.2    20  GLY20      -0.2714
     14  N         60.5800  -70.2870  141.8130 N.am   21  GLN21      -0.1963
     15  CA        61.4540  -69.1850  141.4010 C.3    21  GLN21       0.1733
     16  C         61.5500  -68.9880  139.8890 C.2    21  GLN21       0.2616
     17  O         62.0180  -67.9450  139.4220 O.2    21  GLN21      -0.2715
     18  CB        62.8700  -69.3970  141.9640 C.3    21  GLN21       0.0408
     19  CG        62.8430  -69.4420  143.4910 C.3    21  GLN21       0.0908
     20  CD        62.4590  -70.8270  143.9780 C.2    21  GLN21       0.2608
     21  OE1       63.0420  -71.8250  143.5580 O.2    21  GLN21      -0.2717
     22  NE2       61.4840  -70.8920  144.8780 N.am   21  GLN21      -0.0878
     23  N         61.1140  -69.9950  139.1370 N.am   22  CYS22      -0.1954
     24  CA        61.1330  -69.9830  137.6710 C.3    22  CYS22       0.1843
     25  C         60.1670  -68.9200  137.1370 C.2    22  CYS22       0.2626
     26  O         59.0590  -68.7830  137.6490 O.2    22  CYS22      -0.2714
     27  CB        60.7290  -71.3840  137.1770 C.3    22  CYS22       0.0997
     28  SG        60.6660  -71.5060  135.3530 S.3    22  CYS22      -0.0797
     29  N         60.6010  -68.1590  136.1290 N.am   23  GLY23      -0.1940
     30  CA        59.7480  -67.1320  135.5400 C.3    23  GLY23       0.2014
     31  C         58.7770  -67.7840  134.5750 C.2    23  GLY23       0.2640
     32  O         58.7770  -67.5020  133.3710 O.2    23  GLY23      -0.2714
     33  N         57.9330  -68.6510  135.1250 N.am   24  SER24      -0.1935
     34  CA        56.9590  -69.4140  134.3500 C.3    24  SER24       0.2055
     35  C         55.5020  -68.9720  134.4860 C.2    24  SER24       0.2643
     36  O         54.5960  -69.7420  134.1560 O.2    24  SER24      -0.2714
     37  CB        57.0590  -70.8800  134.7580 C.3    24  SER24       0.2130
     38  OG        56.8360  -70.9740  136.1600 O.3    24  SER24      -0.2179
     39  N         55.2600  -67.7560  134.9660 N.am   25  CYS25      -0.1953
     40  CA        53.8840  -67.2930  135.1270 C.3    25  CYS25       0.1843
     41  C         53.1080  -67.4540  133.8140 C.2    25  CYS25       0.2625
     42  O         51.9290  -67.8240  133.8250 O.2    25  CYS25      -0.2714
     43  CB        53.8510  -65.8330  135.6310 C.3    25  CYS25       0.0997
     44  SG        54.7150  -64.7260  134.4930 S.3    25  CYS25      -0.0797
     45  N         53.7770  -67.2140  132.6860 N.am   26  TRP26      -0.1974
     46  CA        53.1490  -67.3530  131.3720 C.3    26  TRP26       0.1640
     47  C         52.7050  -68.7900  131.0950 C.2    26  TRP26       0.2290
     48  O         51.6990  -69.0210  130.4230 O.2    26  TRP26      -0.2864
     49  CB        54.1030  -66.8970  130.2520 C.3    26  TRP26       0.0576
     50  CG        55.3840  -67.6990  130.2400 C.ar   26  TRP26       0.0006
     51  CD1       56.5150  -67.4610  130.9730 C.ar   26  TRP26       0.0946
     52  CD2       55.6610  -68.8580  129.4410 C.ar   26  TRP26       0.0152
     53  NE1       57.4810  -68.4000  130.6760 N.ar   26  TRP26      -0.2442
     54  CE2       56.9820  -69.2680  129.7410 C.ar   26  TRP26       0.0810
     55  CE3       54.9210  -69.5910  128.5030 C.ar   26  TRP26       0.0012
     56  CZ2       57.5780  -70.3800  129.1310 C.ar   26  TRP26       0.0191
     57  CZ3       55.5180  -70.7010  127.8950 C.ar   26  TRP26       0.0001
     58  CH2       56.8350  -71.0810  128.2150 C.ar   26  TRP26       0.0015
     59  N         61.1830  -67.8270  126.3680 N.3    61  ASP61      -0.1239
     60  CA        62.4640  -67.7700  127.0690 C.3    61  ASP61       0.1674
     61  C         62.5410  -68.6290  128.3340 C.2    61  ASP61       0.2266
     62  O         63.2660  -68.3020  129.2760 O.2    61  ASP61      -0.2867
     63  CB        62.7750  -66.2990  127.3920 C.3    61  ASP61       0.1410
     64  CG        64.2120  -66.1160  127.8480 C.2    61  ASP61       0.3668
     65  OD1       65.1190  -66.7490  127.2660 O.co2  61  ASP61      -0.2456
     66  OD2       64.4330  -65.3170  128.7840 O.co2  61  ASP61      -0.2456
     67  N         62.4420  -70.0550  131.7750 N.3    63  CYS63      -0.1221
     68  CA        62.2760  -69.4240  133.0810 C.3    63  CYS63       0.1808
     69  C         62.5290  -67.9210  133.0400 C.2    63  CYS63       0.2602
     70  O         62.4950  -67.2480  134.0730 O.2    63  CYS63      -0.2717
     71  CB        63.1970  -70.0830  134.1160 C.3    63  CYS63       0.0970
     72  SG        62.5150  -71.7170  134.5450 S.3    63  CYS63      -0.0800
     73  N         62.7830  -67.4020  131.8420 N.am   64  GLY64      -0.1942
     74  CA        63.0170  -65.9810  131.6790 C.3    64  GLY64       0.2014
     75  C         61.7780  -65.2620  131.1740 C.2    64  GLY64       0.2639
     76  O         61.8180  -64.0600  130.9090 O.2    64  GLY64      -0.2714
     77  N         60.6770  -65.9990  131.0290 N.am   65  GLY65      -0.1939
     78  CA        59.4400  -65.4000  130.5610 C.3    65  GLY65       0.2014
     79  C         59.0060  -65.8670  129.1820 C.2    65  GLY65       0.2639
     80  O         59.7320  -66.5880  128.5000 O.2    65  GLY65      -0.2714
     81  N         57.8090  -65.4590  128.7710 N.am   66  GLY66      -0.1939
     82  CA        57.3130  -65.8590  127.4670 C.3    66  GLY66       0.2014
     83  C         55.8820  -65.4240  127.2070 C.2    66  GLY66       0.2639
     84  O         55.1830  -64.9750  128.1170 O.2    66  GLY66      -0.2714
     85  N         55.4490  -65.5760  125.9580 N.am   67  TYR67      -0.1959
     86  CA        54.0970  -65.2050  125.5330 C.3    67  TYR67       0.1771
     87  C         53.1420  -66.3920  125.6050 C.2    67  TYR67       0.2619
     88  O         53.4920  -67.4990  125.1920 O.2    67  TYR67      -0.2715
     89  CB        54.1180  -64.7080  124.0860 C.3    67  TYR67       0.0574
     90  CG        54.8440  -63.3890  123.9830 C.ar   67  TYR67      -0.0198
     91  CD1       54.2680  -62.2160  124.4690 C.ar   67  TYR67      -0.0009
     92  CD2       56.1060  -63.3120  123.3930 C.ar   67  TYR67      -0.0009
     93  CE1       54.9310  -60.9920  124.3680 C.ar   67  TYR67       0.0417
     94  CE2       56.7780  -62.0960  123.2840 C.ar   67  TYR67       0.0417
     95  CZ        56.1840  -60.9420  123.7730 C.ar   67  TYR67       0.1957
     96  OH        56.8360  -59.7380  123.6570 O.3    67  TYR67      -0.2866
     97  N         51.9340  -66.1600  126.1160 N.am   68  MET68      -0.1977
     98  CA        50.9380  -67.2260  126.1930 C.3    68  MET68       0.1605
     99  C         50.5650  -67.6660  124.7740 C.2    68  MET68       0.2287
    100  O         50.3000  -68.8420  124.5240 O.2    68  MET68      -0.2864
    101  CB        49.6820  -66.7400  126.9390 C.3    68  MET68       0.0413
    102  CG        49.9890  -66.5130  128.4270 C.3    68  MET68       0.0598
    103  SD        50.6400  -64.8430  128.7130 S.3    68  MET68      -0.1393
    104  CE        49.1210  -63.9150  128.8890 C.3    68  MET68       0.0692
    105  N         47.6560  -60.4640  130.8290 N.3   134  ALA134     -0.1245
    106  CA        48.9090  -59.9260  131.3400 C.3   134  ALA134      0.1562
    107  C         48.5890  -58.6370  132.0860 C.2   134  ALA134      0.2260
    108  O         47.6900  -57.8900  131.6940 O.2   134  ALA134     -0.2867
    109  CB        49.8700  -59.6450  130.1950 C.3   134  ALA134      0.0290
    110  N         53.4470  -54.4990  131.0010 N.3   160  LEU160     -0.1231
    111  CA        52.9190  -55.8580  131.1350 C.3   160  LEU160      0.1693
    112  C         54.0590  -56.8020  131.5050 C.2   160  LEU160      0.2592
    113  O         54.8130  -57.2580  130.6450 O.2   160  LEU160     -0.2718
    114  CB        52.2640  -56.2760  129.8130 C.3   160  LEU160      0.0284
    115  CG        51.2630  -55.1910  129.3880 C.3   160  LEU160      0.0019
    116  CD1       50.7960  -55.4390  127.9620 C.3   160  LEU160      0.0001
    117  CD2       50.0810  -55.1680  130.3430 C.3   160  LEU160      0.0001
    118  N         54.1660  -57.1060  132.7950 N.am  161  ASN161     -0.1960
    119  CA        55.2540  -57.9380  133.2940 C.3   161  ASN161      0.1819
    120  C         54.8770  -59.2520  133.9600 C.2   161  ASN161      0.2621
    121  O         55.7600  -60.0360  134.3010 O.2   161  ASN161     -0.2715
    122  CB        56.0870  -57.1170  134.2790 C.3   161  ASN161      0.1195
    123  CG        55.1640  -56.5010  135.3240 C.2   161  ASN161      0.2630
    124  OD1       54.4740  -57.2120  136.0620 O.2   161  ASN161     -0.2716
    125  ND2       55.1470  -55.1710  135.3910 N.am  161  ASN161     -0.0877
    126  N         53.5830  -59.5010  134.1360 N.am  162  HIS162     -0.1959
    127  CA        53.1290  -60.7150  134.8080 C.3   162  HIS162      0.1787
    128  C         51.9210  -61.3340  134.0950 C.2   162  HIS162      0.2620
    129  O         51.0050  -60.6190  133.6900 O.2   162  HIS162     -0.2715
    130  CB        52.7730  -60.3540  136.2550 C.3   162  HIS162      0.0785
    131  CG        52.5410  -61.5680  137.1010 C.ar  162  HIS162      0.0821
    132  ND1       53.4530  -62.5970  137.1950 N.ar  162  HIS162     -0.2267
    133  CD2       51.5290  -61.8850  137.9420 C.ar  162  HIS162      0.1154
    134  CE1       53.0150  -63.4960  138.0580 C.ar  162  HIS162      0.1986
    135  NE2       51.8500  -63.0870  138.5270 N.ar  162  HIS162     -0.2212
    136  N         51.9260  -62.6580  133.9400 N.am  163  ALA163     -0.1977
    137  CA        50.8240  -63.3580  133.2760 C.3   163  ALA163      0.1597
    138  C         49.9680  -64.1100  134.2890 C.2   163  ALA163      0.2287
    139  O         50.4830  -64.8590  135.1290 O.2   163  ALA163     -0.2864
    140  CB        51.3690  -64.3330  132.2220 C.3   163  ALA163      0.0319
    141  N         51.1400  -67.8030  142.6090 N.3   184  TRP184     -0.1241
    142  CA        52.0410  -67.5510  143.7300 C.3   184  TRP184      0.1605
    143  C         51.6250  -68.3220  144.9830 C.2   184  TRP184      0.2264
    144  O         51.9030  -67.8930  146.1040 O.2   184  TRP184     -0.2867
    145  CB        52.0880  -66.0510  144.0540 C.3   184  TRP184      0.0550
    146  CG        52.8360  -65.2850  142.9930 C.ar  184  TRP184      0.0003
    147  CD1       53.5960  -65.8020  141.9790 C.ar  184  TRP184      0.0946
    148  CD2       52.9160  -63.8590  142.8650 C.ar  184  TRP184      0.0152
    149  NE1       54.1430  -64.7850  141.2300 N.ar  184  TRP184     -0.2442
    150  CE2       53.7410  -63.5830  141.7510 C.ar  184  TRP184      0.0810
    151  CE3       52.3700  -62.7870  143.5840 C.ar  184  TRP184      0.0012
    152  CZ2       54.0350  -62.2780  141.3390 C.ar  184  TRP184      0.0191
    153  CZ3       52.6630  -61.4880  143.1740 C.ar  184  TRP184      0.0001
    154  CH2       53.4880  -61.2450  142.0610 C.ar  184  TRP184      0.0015
    155  N         46.9310  -57.5700  126.6860 N.3   209  LEU209     -0.1245
    156  CA        47.6300  -58.7460  126.1820 C.3   209  LEU209      0.1561
    157  C         46.9000  -60.0060  126.6420 C.2   209  LEU209      0.2260
    158  O         47.4690  -60.8700  127.3140 O.2   209  LEU209     -0.2867
    159  CB        49.0730  -58.7060  126.7000 C.3   209  LEU209      0.0270
    160  CG        50.0050  -59.6400  125.9240 C.3   209  LEU209      0.0019
    161  CD1       49.7330  -59.6150  124.4260 C.3   209  LEU209      0.0001
    162  CD2       51.4350  -59.1820  126.2140 C.3   209  LEU209      0.0001
@<TRIPOS>BOND
     1    94    92   ar
     2    94    95   ar
     3    92    90   ar
     4    96    95    1
     5    95    93   ar
     6    90    89    1
     7    90    91   ar
     8    89    86    1
     9    93    91   ar
    10   161   160    1
    11   100    99    2
    12    99    98    1
    13    88    87    2
    14    86    87    1
    15    86    85    1
    16    87    97   am
    17   160   162    1
    18   160   159    1
    19    85    83   am
    20    97    98    1
    21   156   157    1
    22   156   155    1
    23   156   159    1
    24    98   101    1
    25    59    60    1
    26   157   158    2
    27   101   102    1
    28    60    63    1
    29    60    61    1
    30    83    82    1
    31    83    84    2
    32    65    64   ar
    33    63    64    1
    34    82    81    1
    35    64    66   ar
    36    57    58   ar
    37    57    55   ar
    38   116   115    1
    39    58    56   ar
    40    61    62    2
    41   102   103    1
    42    80    79    2
    43    55    52   ar
    44   103   104    1
    45    81    79   am
    46    56    54   ar
    47    79    78    1
    48   115   114    1
    49   115   117    1
    50    52    54   ar
    51    52    50   ar
    52    54    53   ar
    53   114   111    1
    54   109   106    1
    55    50    49    1
    56    50    51   ar
    57    49    46    1
    58    48    47    2
    59    78    77    1
    60   113   112    2
    61    53    51   ar
    62   105   106    1
    63    76    75    2
    64   110   111    1
    65    77    75   am
    66    47    46    1
    67   111   112    1
    68    75    74    1
    69   106   107    1
    70    46    45    1
    71   112   118   am
    72    74    73    1
    73   108   107    2
    74    67    68    1
    75    73    69   am
    76   140   137    1
    77    45    41   am
    78   118   119    1
    79    69    68    1
    80    69    70    2
    81    68    71    1
    82   137   136    1
    83   137   138    1
    84   119   120    1
    85   119   122    1
    86    32    31    2
    87   129   128    2
    88    41    42    2
    89    41    40    1
    90   136   128   am
    91   120   126   am
    92   120   121    2
    93   128   127    1
    94    71    72    1
    95   126   127    1
    96    36    35    2
    97   122   123    1
    98   138   139    2
    99    34    35    1
   100    34    37    1
   101    34    33    1
   102    35    39   am
   103    44    43    1
   104    72    28    1
   105    31    33   am
   106    31    30    1
   107    37    38    1
   108   127   130    1
   109    39    40    1
   110    40    43    1
   111   123   125   am
   112   123   124    2
   113    28    27    1
   114    30    29    1
   115    29    25   am
   116   130   131    1
   117   131   132   ar
   118   131   133   ar
   119    25    26    2
   120    25    24    1
   121    27    24    1
   122   132   134   ar
   123    24    23    1
   124   133   135   ar
   125   134   135   ar
   126     9     7   am
   127     8     7    2
   128     7     6    1
   129    23    16   am
   130    17    16    2
   131     5     6    1
   132     5     2    1
   133    16    15    1
   134     4     3    2
   135     2     3    1
   136     2     1    1
   137     3    10   am
   138   149   150   ar
   139   149   147   ar
   140   152   150   ar
   141   152   154   ar
   142    15    14    1
   143    15    18    1
   144   150   148   ar
   145    14    12   am
   146    18    19    1
   147   147   146   ar
   148   154   153   ar
   149    10    11    1
   150    12    13    2
   151    12    11    1
   152   141   142    1
   153   148   146   ar
   154   148   151   ar
   155   146   145    1
   156   153   151   ar
   157    19    20    1
   158    21    20    2
   159   142   145    1
   160   142   143    1
   161    20    22   am
   162   143   144    2
