@<TRIPOS>MOLECULE
tmp/1tu8A00.pdb
 142 136 0 0 0
SMALL
GASTEIGER

@<TRIPOS>ATOM
      1  N         21.0940    6.9300   26.1720 N.3     7  TYR7       -0.1227
      2  CA        19.8200    7.4260   26.6890 C.3     7  TYR7        0.1736
      3  C         19.3160    8.5590   25.7970 C.2     7  TYR7        0.2595
      4  O         19.9780    8.9600   24.8360 O.2     7  TYR7       -0.2718
      5  CB        19.9950    7.9170   28.1270 C.3     7  TYR7        0.0548
      6  CG        18.7000    8.2020   28.8700 C.ar    7  TYR7       -0.0200
      7  CD1       18.4360    9.4680   29.3790 C.ar    7  TYR7       -0.0009
      8  CD2       17.7480    7.1980   29.0800 C.ar    7  TYR7       -0.0009
      9  CE1       17.2640    9.7360   30.0680 C.ar    7  TYR7        0.0417
     10  CE2       16.5580    7.4620   29.7660 C.ar    7  TYR7        0.0417
     11  CZ        16.3320    8.7390   30.2610 C.ar    7  TYR7        0.1957
     12  OH        15.1790    9.0330   30.9530 O.3     7  TYR7       -0.2866
     13  N         18.1290    9.0590   26.1090 N.am    8  PHE8       -0.1976
     14  CA        17.5790   10.2290   25.4450 C.3     8  PHE8        0.1639
     15  C         18.3510   11.4810   25.8350 C.2     8  PHE8        0.2290
     16  O         19.1340   11.4680   26.7860 O.2     8  PHE8       -0.2864
     17  CB        16.0820   10.3430   25.7560 C.3     8  PHE8        0.0560
     18  CG        15.2960    9.1970   25.2090 C.ar    8  PHE8       -0.0200
     19  CD1       14.9150    8.1410   26.0290 C.ar    8  PHE8       -0.0042
     20  CD2       15.0030    9.1310   23.8500 C.ar    8  PHE8       -0.0042
     21  CE1       14.2220    7.0550   25.5130 C.ar    8  PHE8       -0.0003
     22  CE2       14.3090    8.0530   23.3290 C.ar    8  PHE8       -0.0003
     23  CZ        13.9200    7.0070   24.1660 C.ar    8  PHE8       -0.0000
     24  N         18.0430   14.0620   27.5060 N.3    10  ILE10      -0.1245
     25  CA        17.4700   14.7110   28.6800 C.3    10  ILE10       0.1561
     26  C         18.2220   14.2000   29.9110 C.2    10  ILE10       0.2260
     27  O         19.0210   13.2720   29.8150 O.2    10  ILE10      -0.2867
     28  CB        15.9650   14.3670   28.8090 C.3    10  ILE10       0.0252
     29  CG1       15.7680   12.8800   29.1570 C.3    10  ILE10       0.0019
     30  CG2       15.2090   14.6900   27.5100 C.3    10  ILE10       0.0019
     31  CD1       14.3340   12.5160   29.5040 C.3    10  ILE10       0.0001
     32  N         16.5740   13.0130   33.0710 N.3    12  GLY12      -0.1210
     33  CA        15.7530   11.8300   33.2910 C.3    12  GLY12       0.1956
     34  C         16.4040   10.7950   34.1980 C.2    12  GLY12       0.2611
     35  O         17.0760   11.1400   35.1740 O.2    12  GLY12      -0.2717
     36  N         16.2400    9.5280   33.8250 N.am   13  LEU13      -0.1979
     37  CA        16.7380    8.3880   34.5970 C.3    13  LEU13       0.1596
     38  C         18.2500    8.1920   34.4980 C.2    13  LEU13       0.2287
     39  O         18.8370    7.4920   35.3240 O.2    13  LEU13      -0.2864
     40  CB        16.0720    7.0970   34.1030 C.3    13  LEU13       0.0297
     41  CG        14.5680    6.9220   34.3230 C.3    13  LEU13       0.0022
     42  CD1       14.1340    5.5700   33.7730 C.3    13  LEU13       0.0001
     43  CD2       14.2330    7.0370   35.7980 C.3    13  LEU13       0.0001
     44  N         14.7070   11.2530   19.8910 N.3    35  LYS35      -0.1245
     45  CA        13.5130   10.4510   20.1640 C.3    35  LYS35       0.1561
     46  C         13.0370    9.6610   18.9420 C.2    35  LYS35       0.2260
     47  O         12.5850    8.5260   19.0880 O.2    35  LYS35      -0.2867
     48  CB        12.3790   11.3870   20.6460 C.3    35  LYS35       0.0271
     49  CG        12.6590   12.4330   21.7170 C.3    35  LYS35       0.0035
     50  CD        11.4420   13.2960   22.0420 C.3    35  LYS35       0.0206
     51  CE        11.7330   14.3530   23.1100 C.3    35  LYS35       0.1093
     52  NZ        10.5600   15.1700   23.4420 N.3    35  LYS35      -0.1314
     53  N         14.8460    6.2280   18.1830 N.3    38  PHE38      -0.1241
     54  CA        14.7510    5.0980   19.1020 C.3    38  PHE38       0.1605
     55  C         13.9440    3.9300   18.5500 C.2    38  PHE38       0.2264
     56  O         14.2670    2.7720   18.8210 O.2    38  PHE38      -0.2867
     57  CB        14.1960    5.4960   20.4720 C.3    38  PHE38       0.0534
     58  CG        14.2460    4.3720   21.4520 C.ar   38  PHE38      -0.0203
     59  CD1       15.4700    3.8190   21.8080 C.ar   38  PHE38      -0.0042
     60  CD2       13.0790    3.8030   21.9540 C.ar   38  PHE38      -0.0042
     61  CE1       15.5340    2.7470   22.6850 C.ar   38  PHE38      -0.0003
     62  CE2       13.1380    2.7370   22.8300 C.ar   38  PHE38      -0.0003
     63  CZ        14.3650    2.2110   23.1990 C.ar   38  PHE38      -0.0000
     64  N         15.0680   -0.1010   18.9820 N.3    42  LYS42      -0.1245
     65  CA        14.3640   -0.5070   20.2020 C.3    42  LYS42       0.1561
     66  C         14.5610   -1.9780   20.5780 C.2    42  LYS42       0.2260
     67  O         14.7790   -2.2950   21.7470 O.2    42  LYS42      -0.2867
     68  CB        12.8640   -0.1820   20.0780 C.3    42  LYS42       0.0271
     69  CG        11.9800   -0.7420   21.1930 C.3    42  LYS42       0.0035
     70  CD        10.6140   -0.0530   21.2450 C.3    42  LYS42       0.0206
     71  CE         9.7210   -0.6260   22.3520 C.3    42  LYS42       0.1093
     72  NZ         9.8730    0.0820   23.6680 N.3    42  LYS42      -0.1314
     73  N         13.3520   -3.2320   25.7350 N.3    48  GLY48      -0.1210
     74  CA        12.9340   -2.2510   24.7500 C.3    48  GLY48       0.1956
     75  C         13.0220   -0.8090   25.2210 C.2    48  GLY48       0.2612
     76  O         12.3110    0.0570   24.7140 O.2    48  GLY48      -0.2717
     77  N         13.8970   -0.5500   26.1900 N.am   49  GLN49      -0.1965
     78  CA        13.9670    0.7570   26.8410 C.3    49  GLN49       0.1733
     79  C         15.3900    1.1510   27.2140 C.2    49  GLN49       0.2616
     80  O         16.2940    0.3160   27.2470 O.2    49  GLN49      -0.2715
     81  CB        13.0790    0.7680   28.0930 C.3    49  GLN49       0.0408
     82  CG        11.5910    0.7700   27.7670 C.3    49  GLN49       0.0908
     83  CD        10.7170    1.3020   28.8900 C.2    49  GLN49       0.2608
     84  OE1        9.8430    2.1450   28.6590 O.2    49  GLN49      -0.2717
     85  NE2       10.9390    0.8140   30.1000 N.am   49  GLN49      -0.0878
     86  N         15.5520    2.4410   27.4880 N.am   50  LEU50      -0.1964
     87  CA        16.8140    3.0550   27.8900 C.3    50  LEU50       0.1713
     88  C         16.6500    3.6330   29.3010 C.2    50  LEU50       0.2458
     89  O         15.5100    3.8740   29.7250 O.2    50  LEU50      -0.2730
     90  CB        17.1540    4.1710   26.9060 C.3    50  LEU50       0.0310
     91  CG        17.2870    3.7590   25.4400 C.3    50  LEU50       0.0022
     92  CD1       17.5680    4.9880   24.5870 C.3    50  LEU50       0.0001
     93  CD2       18.3920    2.7230   25.2690 C.3    50  LEU50       0.0001
     94  N         17.7320    3.8810   30.0500 N.am   51  PRO51      -0.2727
     95  CA        19.1370    3.8140   29.6090 C.3    51  PRO51       0.1402
     96  C         19.7620    2.4220   29.4510 C.2    51  PRO51       0.2269
     97  O         19.2520    1.4290   29.9690 O.2    51  PRO51      -0.2865
     98  CB        19.8690    4.5740   30.7250 C.3    51  PRO51       0.0296
     99  CG        19.0250    4.3340   31.9610 C.3    51  PRO51       0.0237
    100  CD        17.6150    4.3000   31.4580 C.3    51  PRO51       0.0939
    101  N         18.3630   -1.0920   32.6230 N.3    62  GLN62      -0.1231
    102  CA        17.7470   -0.8550   33.9310 C.3    62  GLN62       0.1698
    103  C         18.6320    0.0640   34.7770 C.2    62  GLN62       0.2592
    104  O         19.6750   -0.3550   35.2850 O.2    62  GLN62      -0.2718
    105  CB        17.4030   -2.1670   34.6690 C.3    62  GLN62       0.0381
    106  CG        16.2570   -2.9590   34.0540 C.3    62  GLN62       0.0905
    107  CD        14.8820   -2.3210   34.2430 C.2    62  GLN62       0.2608
    108  OE1       13.8950   -2.7690   33.6440 O.2    62  GLN62      -0.2717
    109  NE2       14.8150   -1.2800   35.0460 N.am   62  GLN62      -0.0878
    110  N         18.2010    1.3170   34.9230 N.am   63  SER63      -0.1952
    111  CA        18.9900    2.3500   35.5710 C.3    63  SER63       0.1924
    112  C         19.4840    1.9700   36.9700 C.2    63  SER63       0.2314
    113  O         20.5990    2.2970   37.3290 O.2    63  SER63      -0.2863
    114  CB        18.2180    3.6680   35.6350 C.3    63  SER63       0.2116
    115  OG        17.0210    3.5540   36.3830 O.3    63  SER63      -0.2180
    116  N         14.1480    6.9540   44.2330 N.3    95  ARG95      -0.1245
    117  CA        13.3950    6.5100   43.0570 C.3    95  ARG95       0.1563
    118  C         11.8680    6.6470   43.2210 C.2    95  ARG95       0.2260
    119  O         11.1770    7.0020   42.2700 O.2    95  ARG95      -0.2867
    120  CB        13.7460    5.0610   42.7230 C.3    95  ARG95       0.0307
    121  CG        15.1680    4.8700   42.2590 C.3    95  ARG95       0.0489
    122  CD        15.4590    3.4440   41.8600 C.3    95  ARG95       0.2205
    123  NE        14.6320    3.0290   40.7290 N.pl3  95  ARG95      -0.0865
    124  CZ        15.0580    2.9270   39.4740 C.cat  95  ARG95       0.5346
    125  NH1       16.3130    3.2150   39.1600 N.pl3  95  ARG95       0.1354
    126  NH2       14.2220    2.5420   38.5250 N.pl3  95  ARG95       0.1354
    127  N          4.6710   14.2750   33.4390 N.3   106  TYR106     -0.1241
    128  CA         4.2220   13.7030   32.1670 C.3   106  TYR106      0.1605
    129  C          2.6980   13.5700   32.0050 C.2   106  TYR106      0.2264
    130  O          2.2040   13.5710   30.8780 O.2   106  TYR106     -0.2867
    131  CB         4.8700   12.3230   31.9560 C.3   106  TYR106      0.0534
    132  CG         6.3420   12.4090   31.5870 C.ar  106  TYR106     -0.0201
    133  CD1        7.3360   12.2000   32.5410 C.ar  106  TYR106     -0.0009
    134  CD2        6.7330   12.7140   30.2920 C.ar  106  TYR106     -0.0009
    135  CE1        8.6660   12.2710   32.2100 C.ar  106  TYR106      0.0417
    136  CE2        8.0640   12.8000   29.9530 C.ar  106  TYR106      0.0417
    137  CZ         9.0310   12.5770   30.9210 C.ar  106  TYR106      0.1957
    138  OH        10.3570   12.6570   30.5970 O.3   106  TYR106     -0.2866
    139  N         11.3990   14.7810   29.0250 N.3   204  GLY204     -0.1225
    140  CA        11.2320   14.6070   27.5910 C.3   204  GLY204      0.1811
    141  C         10.1080   15.4150   26.9550 C.2   204  GLY204      0.2280
    142  O          9.9810   15.4380   25.7300 O.2   204  GLY204     -0.2866
@<TRIPOS>BOND
     1    53    54    1
     2    55    56    2
     3    55    54    1
     4    46    47    2
     5    46    45    1
     6    64    65    1
     7    54    57    1
     8    44    45    1
     9    68    65    1
    10    68    69    1
    11    45    48    1
    12    65    66    1
    13    57    58    1
    14    66    67    2
    15    48    49    1
    16    69    70    1
    17    70    71    1
    18    58    59   ar
    19    58    60   ar
    20    49    50    1
    21    59    61   ar
    22    60    62   ar
    23    50    51    1
    24    71    72    1
    25    61    63   ar
    26    62    63   ar
    27    51    52    1
    28    22    20   ar
    29    22    23   ar
    30    20    18   ar
    31    23    21   ar
    32    92    91    1
    33    76    75    2
    34    74    75    1
    35    74    73    1
    36     4     3    2
    37    18    17    1
    38    18    19   ar
    39    75    77   am
    40    93    91    1
    41    91    90    1
    42    14    17    1
    43    14    15    1
    44    14    13    1
    45    21    19   ar
    46   142   141    2
    47     3    13   am
    48     3     2    1
    49    15    16    2
    50     1     2    1
    51    77    78    1
    52     2     5    1
    53    78    79    1
    54    78    81    1
    55    90    87    1
    56   141   140    1
    57    79    80    2
    58    79    86   am
    59    86    87    1
    60    24    25    1
    61    30    28    1
    62   140   139    1
    63    82    81    1
    64    82    83    1
    65    87    88    1
    66     5     6    1
    67    84    83    2
    68    25    28    1
    69    25    26    1
    70    28    29    1
    71     6     8   ar
    72     6     7   ar
    73    83    85   am
    74     8    10   ar
    75    29    31    1
    76    88    89    2
    77    88    94   am
    78     7     9   ar
    79    96    95    1
    80    96    97    2
    81    95    94    1
    82    95    98    1
    83    10    11   ar
    84    27    26    2
    85   136   134   ar
    86   136   137   ar
    87    94   100    1
    88     9    11   ar
    89    11    12    1
    90   134   132   ar
    91   138   137    1
    92    98    99    1
    93   130   129    2
    94   137   135   ar
    95   100    99    1
    96   132   131    1
    97   132   133   ar
    98   131   128    1
    99   129   128    1
   100   128   127    1
   101   135   133   ar
   102   101   102    1
   103    32    33    1
   104    33    34    1
   105   108   107    2
   106    42    41    1
   107    36    34   am
   108    36    37    1
   109   102   105    1
   110   102   103    1
   111   106   107    1
   112   106   105    1
   113    40    41    1
   114    40    37    1
   115    34    35    2
   116   107   109   am
   117    41    43    1
   118    38    37    1
   119    38    39    2
   120   103   110   am
   121   103   104    2
   122   110   111    1
   123   111   114    1
   124   111   112    1
   125   114   115    1
   126   112   113    2
   127   126   124    1
   128   125   124    1
   129   124   123    2
   130   123   122    1
   131   122   121    1
   132   121   120    1
   133   119   118    2
   134   120   117    1
   135   117   118    1
   136   117   116    1
