@<TRIPOS>MOLECULE
tmp/1tu9A00.pdb
 209 199 0 0 0
SMALL
GASTEIGER

@<TRIPOS>ATOM
      1  N          9.2020   12.5610   -8.1550 N.3    27  PHE27      -0.1241
      2  CA         8.2180   12.4830   -7.0820 C.3    27  PHE27       0.1605
      3  C          6.7940   12.6170   -7.6470 C.2    27  PHE27       0.2264
      4  O          5.9190   11.8000   -7.3550 O.2    27  PHE27      -0.2867
      5  CB         8.5390   13.5770   -6.0620 C.3    27  PHE27       0.0534
      6  CG         7.7280   13.5200   -4.7770 C.ar   27  PHE27      -0.0203
      7  CD1        7.3410   12.3260   -4.1890 C.ar   27  PHE27      -0.0042
      8  CD2        7.4310   14.6920   -4.1200 C.ar   27  PHE27      -0.0042
      9  CE1        6.6220   12.3200   -2.9780 C.ar   27  PHE27      -0.0003
     10  CE2        6.7340   14.6860   -2.9160 C.ar   27  PHE27      -0.0003
     11  CZ         6.3460   13.4940   -2.3520 C.ar   27  PHE27      -0.0000
     12  N          0.4220   12.3550   -5.4780 N.3    34  ILE34      -0.1245
     13  CA         1.4290   13.3950   -5.3300 C.3    34  ILE34       0.1561
     14  C          1.1130   14.5560   -6.2620 C.2    34  ILE34       0.2260
     15  O          1.1580   15.7070   -5.8560 O.2    34  ILE34      -0.2867
     16  CB         2.8490   12.8590   -5.6230 C.3    34  ILE34       0.0252
     17  CG1        3.1790   11.6310   -4.7850 C.3    34  ILE34       0.0019
     18  CG2        3.8850   13.9490   -5.3700 C.3    34  ILE34       0.0019
     19  CD1        3.0150   11.8090   -3.3350 C.3    34  ILE34       0.0001
     20  N         -1.6750   16.6360   -4.8210 N.3    37  LYS37      -0.1231
     21  CA        -1.2920   17.4530   -3.6870 C.3    37  LYS37       0.1693
     22  C         -0.5940   18.7410   -4.1180 C.2    37  LYS37       0.2592
     23  O         -0.7510   19.7750   -3.4590 O.2    37  LYS37      -0.2718
     24  CB        -0.3940   16.6680   -2.7350 C.3    37  LYS37       0.0285
     25  CG        -1.1110   15.6850   -1.8370 C.3    37  LYS37       0.0035
     26  CD        -1.9050   16.3680   -0.7340 C.3    37  LYS37       0.0206
     27  CE        -2.6660   15.3440    0.0710 C.3    37  LYS37       0.1093
     28  NZ        -3.6270   15.9670    0.9990 N.3    37  LYS37      -0.1314
     29  N          0.1850   18.6750   -5.2040 N.am   38  PHE38      -0.1976
     30  CA         1.0090   19.8040   -5.6500 C.3    38  PHE38       0.1639
     31  C          0.4050   20.5860   -6.8230 C.2    38  PHE38       0.2290
     32  O          1.0530   21.4640   -7.3810 O.2    38  PHE38      -0.2864
     33  CB         2.4160   19.3110   -6.0200 C.3    38  PHE38       0.0560
     34  CG         3.2580   18.9500   -4.8360 C.ar   38  PHE38      -0.0200
     35  CD1        3.6050   17.6390   -4.5750 C.ar   38  PHE38      -0.0042
     36  CD2        3.7010   19.9340   -3.9690 C.ar   38  PHE38      -0.0042
     37  CE1        4.3840   17.3240   -3.4650 C.ar   38  PHE38      -0.0003
     38  CE2        4.4730   19.6230   -2.8720 C.ar   38  PHE38      -0.0003
     39  CZ         4.8200   18.3150   -2.6210 C.ar   38  PHE38      -0.0000
     40  N         -1.5840   23.0480   -7.1780 N.3    40  THR40      -0.1203
     41  CA        -1.5370   24.5070   -7.0670 C.3    40  THR40       0.1994
     42  C         -0.4570   24.9240   -6.0870 C.2    40  THR40       0.2619
     43  O         -0.6910   25.6970   -5.1820 O.2    40  THR40      -0.2717
     44  CB        -2.9070   25.1200   -6.6740 C.3    40  THR40       0.1784
     45  OG1       -3.3670   24.5810   -5.4310 O.3    40  THR40      -0.2211
     46  CG2       -3.9830   24.7800   -7.6780 C.3    40  THR40       0.0376
     47  N          0.7420   24.3950   -6.3180 N.am   41  THR41      -0.1938
     48  CA         1.9640   24.7820   -5.6270 C.3    41  THR41       0.2028
     49  C          2.9020   25.5180   -6.5840 C.2    41  THR41       0.2642
     50  O          3.0630   25.1110   -7.7360 O.2    41  THR41      -0.2714
     51  CB         2.6400   23.5040   -5.0780 C.3    41  THR41       0.1808
     52  OG1        1.7970   22.9080   -4.0830 O.3    41  THR41      -0.2208
     53  CG2        3.9850   23.8120   -4.3730 C.3    41  THR41       0.0379
     54  N          3.5270   26.5800   -6.1030 N.am   42  ASP42      -0.1971
     55  CA         4.5980   27.2450   -6.8440 C.3    42  ASP42       0.1709
     56  C          5.8210   26.3460   -6.6870 C.2    42  ASP42       0.2293
     57  O          6.4500   26.3210   -5.6290 O.2    42  ASP42      -0.2864
     58  CB         4.8210   28.6310   -6.2540 C.3    42  ASP42       0.1436
     59  CG         5.9940   29.3550   -6.8440 C.2    42  ASP42       0.3671
     60  OD1        6.8210   28.7040   -7.5340 O.co2  42  ASP42      -0.2456
     61  OD2        6.1380   30.5760   -6.6230 O.co2  42  ASP42      -0.2456
     62  N          8.8090   25.9190   -3.9790 N.3    46  GLN46      -0.1245
     63  CA         8.8240   24.6630   -3.2410 C.3    46  GLN46       0.1566
     64  C         10.2110   24.0290   -3.2300 C.2    46  GLN46       0.2260
     65  O         10.6000   23.4250   -2.2390 O.2    46  GLN46      -0.2867
     66  CB         7.8190   23.6810   -3.8270 C.3    46  GLN46       0.0367
     67  CG         7.5350   22.5010   -2.9200 C.3    46  GLN46       0.0905
     68  CD         6.7660   22.8920   -1.6690 C.2    46  GLN46       0.2608
     69  OE1        6.2480   24.0090   -1.5690 O.2    46  GLN46      -0.2717
     70  NE2        6.6830   21.9680   -0.7170 N.am   46  GLN46      -0.0878
     71  N         12.0900   25.5090   -0.4580 N.3    49  LEU49      -0.1231
     72  CA        11.6150   24.9690    0.7980 C.3    49  LEU49       0.1693
     73  C         12.1560   23.5720    1.0330 C.2    49  LEU49       0.2591
     74  O         12.5690   23.2460    2.1450 O.2    49  LEU49      -0.2718
     75  CB        10.0890   24.9690    0.8420 C.3    49  LEU49       0.0284
     76  CG         9.4490   26.3600    0.8900 C.3    49  LEU49       0.0019
     77  CD1        7.9200   26.2590    0.7720 C.3    49  LEU49       0.0001
     78  CD2        9.8300   27.0880    2.1610 C.3    49  LEU49       0.0001
     79  N         12.1680   22.7390    0.0060 N.am   50  LEU50      -0.1980
     80  CA        12.6820   21.3850    0.1640 C.3    50  LEU50       0.1596
     81  C         14.1660   21.3660    0.4830 C.2    50  LEU50       0.2287
     82  O         14.6160   20.5590    1.2860 O.2    50  LEU50      -0.2864
     83  CB        12.4260   20.5720   -1.0970 C.3    50  LEU50       0.0297
     84  CG        12.8740   19.1080   -1.0100 C.3    50  LEU50       0.0022
     85  CD1       12.0750   18.3720    0.0460 C.3    50  LEU50       0.0001
     86  CD2       12.7330   18.4430   -2.3620 C.3    50  LEU50       0.0001
     87  N         15.8300   23.4740    2.1990 N.3    52  ALA52      -0.1231
     88  CA        15.9230   23.7850    3.6150 C.3    52  ALA52       0.1694
     89  C         15.3540   22.6500    4.4660 C.2    52  ALA52       0.2593
     90  O         15.8710   22.3830    5.5470 O.2    52  ALA52      -0.2718
     91  CB        15.2010   25.0960    3.9080 C.3    52  ALA52       0.0304
     92  N         14.3000   21.9840    3.9930 N.am   53  GLY53      -0.1942
     93  CA        13.6890   20.8840    4.7230 C.3    53  GLY53       0.2014
     94  C         14.6130   19.6890    4.8670 C.2    53  GLY53       0.2638
     95  O         14.7080   19.0820    5.9360 O.2    53  GLY53      -0.2714
     96  N         15.3050   19.3400    3.7950 N.am   54  ILE54      -0.1977
     97  CA        16.3030   18.2800    3.8490 C.3    54  ILE54       0.1596
     98  C         17.4010   18.6790    4.8420 C.2    54  ILE54       0.2287
     99  O         17.8470   17.8560    5.6430 O.2    54  ILE54      -0.2864
    100  CB        16.8600   17.9700    2.4500 C.3    54  ILE54       0.0276
    101  CG1       15.7640   17.3080    1.6050 C.3    54  ILE54       0.0022
    102  CG2       18.0510   17.0330    2.5650 C.3    54  ILE54       0.0022
    103  CD1       16.1090   17.1470    0.1290 C.3    54  ILE54       0.0001
    104  N         16.9700   20.4900    7.4660 N.3    56  ASN56      -0.1225
    105  CA        16.4010   20.2840    8.8000 C.3    56  ASN56       0.1785
    106  C         16.4370   18.8150    9.2220 C.2    56  ASN56       0.2597
    107  O         16.7040   18.5060   10.3840 O.2    56  ASN56      -0.2718
    108  CB        14.9890   20.8660    8.9010 C.3    56  ASN56       0.1169
    109  CG        14.9840   22.3990    8.8680 C.2    56  ASN56       0.2627
    110  OD1       15.9340   23.0410    9.3160 O.2    56  ASN56      -0.2716
    111  ND2       13.9270   22.9710    8.3210 N.am   56  ASN56      -0.0877
    112  N         16.1970   17.9040    8.2830 N.am   57  LEU57      -0.1980
    113  CA        16.2560   16.4740    8.5950 C.3    57  LEU57       0.1596
    114  C         17.6980   16.0580    8.9190 C.2    57  LEU57       0.2287
    115  O         17.9260   15.2300    9.8020 O.2    57  LEU57      -0.2864
    116  CB        15.6550   15.6250    7.4520 C.3    57  LEU57       0.0297
    117  CG        14.4900   14.6850    7.8250 C.3    57  LEU57       0.0022
    118  CD1       13.3990   15.4200    8.5140 C.3    57  LEU57       0.0001
    119  CD2       13.9040   13.9730    6.6230 C.3    57  LEU57       0.0001
    120  N          7.0260   19.9660   11.4650 N.3    72  LEU72      -0.1245
    121  CA         6.7540   19.3260   10.1680 C.3    72  LEU72       0.1561
    122  C          5.7350   18.2000   10.3220 C.2    72  LEU72       0.2260
    123  O          4.8470   18.0240    9.4790 O.2    72  LEU72      -0.2867
    124  CB         8.0390   18.7720    9.5510 C.3    72  LEU72       0.0270
    125  CG         8.9380   19.7130    8.7370 C.3    72  LEU72       0.0019
    126  CD1       10.2530   19.0190    8.4310 C.3    72  LEU72       0.0001
    127  CD2        8.2630   20.1050    7.4350 C.3    72  LEU72       0.0001
    128  N          2.4260   19.9870   10.4630 N.3    75  SER75      -0.1202
    129  CA         2.0180   20.5990    9.2080 C.3    75  SER75       0.2020
    130  C          1.6180   19.5870    8.1550 C.2    75  SER75       0.2618
    131  O          0.7720   19.8940    7.3080 O.2    75  SER75      -0.2717
    132  CB         3.1100   21.5220    8.6680 C.3    75  SER75       0.2103
    133  OG         4.2520   20.8260    8.2220 O.3    75  SER75      -0.2182
    134  N          2.1980   18.3890    8.2150 N.am   76  HIS76      -0.1975
    135  CA         1.9190   17.3480    7.2380 C.3    76  HIS76       0.1656
    136  C          0.8690   16.3580    7.7560 C.2    76  HIS76       0.2291
    137  O          0.5050   15.4080    7.0710 O.2    76  HIS76      -0.2864
    138  CB         3.2190   16.6510    6.8010 C.3    76  HIS76       0.0771
    139  CG         4.0460   17.4800    5.8600 C.ar   76  HIS76       0.0820
    140  ND1        4.5110   18.7310    6.1960 N.ar   76  HIS76      -0.2267
    141  CD2        4.4720   17.2510    4.5950 C.ar   76  HIS76       0.1154
    142  CE1        5.1880   19.2360    5.1750 C.ar   76  HIS76       0.1986
    143  NE2        5.1700   18.3650    4.1830 N.ar   76  HIS76      -0.2212
    144  N         -1.8630   19.5210    6.1310 N.3    81  LEU81      -0.1245
    145  CA        -1.6940   19.2040    4.7100 C.3    81  LEU81       0.1561
    146  C         -2.2720   17.8370    4.3490 C.2    81  LEU81       0.2260
    147  O         -2.6700   17.6020    3.2050 O.2    81  LEU81      -0.2867
    148  CB        -0.2190   19.2600    4.2960 C.3    81  LEU81       0.0270
    149  CG         0.3880   20.6700    4.2040 C.3    81  LEU81       0.0019
    150  CD1        1.8870   20.6120    4.1180 C.3    81  LEU81       0.0001
    151  CD2       -0.1810   21.4220    3.0070 C.3    81  LEU81       0.0001
    152  N         -0.8820   14.3760    4.6590 N.3    83  ILE83      -0.1245
    153  CA         0.0450   13.5750    3.8670 C.3    83  ILE83       0.1561
    154  C          0.1150   12.1840    4.4940 C.2    83  ILE83       0.2260
    155  O          0.6920   12.0040    5.5570 O.2    83  ILE83      -0.2867
    156  CB         1.4440   14.2270    3.8390 C.3    83  ILE83       0.0252
    157  CG1        1.3610   15.6800    3.3440 C.3    83  ILE83       0.0019
    158  CG2        2.3970   13.3780    3.0030 C.3    83  ILE83       0.0019
    159  CD1        0.6210   15.8920    2.0390 C.3    83  ILE83       0.0001
    160  N          3.0940    7.9350    1.5020 N.3    87  LEU87      -0.1231
    161  CA         3.6670    8.8320    0.5060 C.3    87  LEU87       0.1693
    162  C          5.1400    9.1360    0.7610 C.2    87  LEU87       0.2592
    163  O          5.8610    9.4980   -0.1650 O.2    87  LEU87      -0.2718
    164  CB         2.8410   10.1150    0.3840 C.3    87  LEU87       0.0284
    165  CG         1.3770    9.8700   -0.0300 C.3    87  LEU87       0.0019
    166  CD1        0.6630   11.1950   -0.1880 C.3    87  LEU87       0.0001
    167  CD2        1.2640    9.0400   -1.3170 C.3    87  LEU87       0.0001
    168  N          5.6060    8.9790    1.9910 N.am   88  TYR88      -0.1976
    169  CA         7.0150    9.2410    2.3020 C.3    88  TYR88       0.1639
    170  C          7.9450    8.2240    1.6560 C.2    88  TYR88       0.2290
    171  O          9.1020    8.5390    1.3690 O.2    88  TYR88      -0.2864
    172  CB         7.2560    9.3210    3.8170 C.3    88  TYR88       0.0560
    173  CG         6.5680   10.5000    4.4160 C.ar   88  TYR88      -0.0198
    174  CD1        5.2670   10.3990    4.8680 C.ar   88  TYR88      -0.0009
    175  CD2        7.1840   11.7320    4.4760 C.ar   88  TYR88      -0.0009
    176  CE1        4.6070   11.4890    5.3840 C.ar   88  TYR88       0.0417
    177  CE2        6.5450   12.8310    4.9870 C.ar   88  TYR88       0.0417
    178  CZ         5.2390   12.7140    5.4340 C.ar   88  TYR88       0.1957
    179  OH         4.5890   13.8180    5.9360 O.3    88  TYR88      -0.2866
    180  N          8.5290    9.6890   -1.6510 N.3    91  TRP91      -0.1241
    181  CA         9.4270   10.8270   -1.4890 C.3    91  TRP91       0.1605
    182  C         10.8730   10.3450   -1.4120 C.2    91  TRP91       0.2264
    183  O         11.7580   10.8470   -2.1080 O.2    91  TRP91      -0.2867
    184  CB         9.0240   11.5830   -0.2180 C.3    91  TRP91       0.0550
    185  CG         9.7900   12.8420    0.0690 C.ar   91  TRP91       0.0003
    186  CD1        9.4290   14.1150   -0.2600 C.ar   91  TRP91       0.0946
    187  CD2       11.0310   12.9670    0.7830 C.ar   91  TRP91       0.0152
    188  NE1       10.3760   15.0110    0.1740 N.ar   91  TRP91      -0.2442
    189  CE2       11.3760   14.3290    0.8110 C.ar   91  TRP91       0.0810
    190  CE3       11.9050   12.0580    1.3830 C.ar   91  TRP91       0.0012
    191  CZ2       12.5360   14.8010    1.4220 C.ar   91  TRP91       0.0191
    192  CZ3       13.0550   12.5340    1.9960 C.ar   91  TRP91       0.0001
    193  CH2       13.3570   13.8870    2.0140 C.ar   91  TRP91       0.0015
    194  N         11.8180   11.1060    8.9230 N.3   122  ILE122     -0.1245
    195  CA        10.5530   10.6640    8.3290 C.3   122  ILE122      0.1561
    196  C          9.7260    9.9270    9.3670 C.2   122  ILE122      0.2260
    197  O          8.5130   10.0970    9.4320 O.2   122  ILE122     -0.2867
    198  CB        10.8020    9.7730    7.0850 C.3   122  ILE122      0.0252
    199  CG1       11.2610   10.6280    5.8900 C.3   122  ILE122      0.0019
    200  CG2        9.5590    8.9870    6.6990 C.3   122  ILE122      0.0019
    201  CD1       11.8080    9.8320    4.7290 C.3   122  ILE122      0.0001
    202  N          7.9760   12.4720   11.5190 N.3   125  ILE125     -0.1245
    203  CA         6.8970   13.1400   10.8030 C.3   125  ILE125      0.1561
    204  C          5.6800   12.2280   10.7080 C.2   125  ILE125      0.2260
    205  O          4.5590   12.6500   11.0350 O.2   125  ILE125     -0.2867
    206  CB         7.3720   13.5910    9.4120 C.3   125  ILE125      0.0252
    207  CG1        8.4350   14.6710    9.5640 C.3   125  ILE125      0.0019
    208  CG2        6.1870   14.1210    8.5840 C.3   125  ILE125      0.0019
    209  CD1        9.1980   14.9620    8.2990 C.3   125  ILE125      0.0001
@<TRIPOS>BOND
     1     1     2    1
     2    50    49    2
     3    46    44    1
     4     3     4    2
     5     3     2    1
     6    60    59   ar
     7    32    31    2
     8    40    41    1
     9     2     5    1
    10    41    44    1
    11    41    42    1
    12    55    56    1
    13    55    58    1
    14    55    54    1
    15    59    61   ar
    16    59    58    1
    17    31    30    1
    18    56    57    2
    19    44    45    1
    20    49    54   am
    21    49    48    1
    22    47    42   am
    23    47    48    1
    24    14    15    2
    25    14    13    1
    26    42    43    2
    27     5     6    1
    28    33    30    1
    29    33    34    1
    30    30    29    1
    31    48    51    1
    32    16    18    1
    33    16    13    1
    34    16    17    1
    35    12    13    1
    36    29    22   am
    37    51    53    1
    38    51    52    1
    39    34    35   ar
    40    34    36   ar
    41    20    21    1
    42    17    19    1
    43     6     7   ar
    44     6     8   ar
    45    35    37   ar
    46     7     9   ar
    47     8    10   ar
    48    22    21    1
    49    22    23    2
    50    62    63    1
    51    36    38   ar
    52    66    63    1
    53    66    67    1
    54    21    24    1
    55    37    39   ar
    56    63    64    1
    57    64    65    2
    58     9    11   ar
    59    67    68    1
    60    10    11   ar
    61    38    39   ar
    62    24    25    1
    63    86    84    1
    64   183   182    2
    65    25    26    1
    66    68    69    2
    67    68    70   am
    68   180   181    1
    69   181   182    1
    70   181   184    1
    71   167   165    1
    72    83    84    1
    73    83    80    1
    74    84    85    1
    75    26    27    1
    76    71    72    1
    77   186   185   ar
    78   186   188   ar
    79   184   185    1
    80   166   165    1
    81   163   162    2
    82   165   164    1
    83    79    80    1
    84    79    73   am
    85   185   187   ar
    86    27    28    1
    87   103   101    1
    88    80    81    1
    89   188   189   ar
    90   164   161    1
    91    81    82    2
    92   161   162    1
    93   161   160    1
    94   162   168   am
    95    77    76    1
    96   187   189   ar
    97   187   190   ar
    98    72    75    1
    99    72    73    1
   100   189   191   ar
   101    75    76    1
   102    76    78    1
   103    73    74    2
   104   171   170    2
   105   190   192   ar
   106   191   193   ar
   107   101   100    1
   108   170   169    1
   109   168   169    1
   110   192   193   ar
   111   159   157    1
   112    87    88    1
   113   169   172    1
   114   100   102    1
   115   100    97    1
   116   158   156    1
   117   151   149    1
   118   147   146    2
   119   157   156    1
   120    88    91    1
   121    88    89    1
   122    96    97    1
   123    96    94   am
   124   172   173    1
   125   156   153    1
   126    97    98    1
   127   153   154    1
   128   153   152    1
   129    92    89   am
   130    92    93    1
   131   150   149    1
   132   143   141   ar
   133   143   142   ar
   134   149   148    1
   135   148   145    1
   136   146   145    1
   137   173   175   ar
   138   173   174   ar
   139    89    90    2
   140   175   177   ar
   141   154   155    2
   142   141   139   ar
   143   145   144    1
   144    93    94    1
   145   201   199    1
   146    98    99    2
   147    94    95    2
   148   174   176   ar
   149   177   178   ar
   150   142   140   ar
   151   176   178   ar
   152   178   179    1
   153   139   140   ar
   154   139   138    1
   155   199   198    1
   156   119   117    1
   157   200   198    1
   158   138   135    1
   159   137   136    2
   160   198   195    1
   161   135   136    1
   162   135   134    1
   163   131   130    2
   164   127   125    1
   165   116   117    1
   166   116   113    1
   167   104   105    1
   168   117   118    1
   169   130   134   am
   170   130   129    1
   171   133   132    1
   172   112   113    1
   173   112   106   am
   174   209   207    1
   175   111   109   am
   176   195   194    1
   177   195   196    1
   178   126   125    1
   179   208   206    1
   180   113   114    1
   181   132   129    1
   182   125   124    1
   183   105   108    1
   184   105   106    1
   185   109   108    1
   186   109   110    2
   187   114   115    2
   188   129   128    1
   189   106   107    2
   190   196   197    2
   191   206   207    1
   192   206   203    1
   193   123   122    2
   194   124   121    1
   195   121   122    1
   196   121   120    1
   197   204   203    1
   198   204   205    2
   199   203   202    1
