@<TRIPOS>MOLECULE
tmp/1tubB02.pdb
 221 210 0 0 0
SMALL
GASTEIGER

@<TRIPOS>ATOM
      1  N        -85.7190   39.9730  -25.4660 N.3    19  LYS19      -0.1245
      2  CA       -84.8940   38.8100  -25.5860 C.3    19  LYS19       0.1561
      3  C        -83.4170   39.0790  -25.8610 C.2    19  LYS19       0.2260
      4  O        -82.5860   38.2320  -25.7060 O.2    19  LYS19      -0.2867
      5  CB       -85.4240   37.8740  -26.6560 C.3    19  LYS19       0.0271
      6  CG       -86.6650   37.1160  -26.1950 C.3    19  LYS19       0.0035
      7  CD       -86.4570   35.7080  -25.6650 C.3    19  LYS19       0.0206
      8  CE       -87.6890   35.4540  -24.8240 C.3    19  LYS19       0.1093
      9  NZ       -88.0850   34.2250  -24.1550 N.3    19  LYS19      -0.1314
     10  N        -82.2580   39.9880  -22.4890 N.3    22  GLU22      -0.1231
     11  CA       -82.0570   39.4280  -21.1700 C.3    22  GLU22       0.1699
     12  C        -80.8900   38.5040  -21.1710 C.2    22  GLU22       0.2592
     13  O        -80.5090   37.8230  -20.2120 O.2    22  GLU22      -0.2718
     14  CB       -83.3120   38.7480  -20.6980 C.3    22  GLU22       0.0402
     15  CG       -84.5070   39.6200  -20.5800 C.3    22  GLU22       0.1161
     16  CD       -85.7340   38.9140  -20.1210 C.2    22  GLU22       0.3649
     17  OE1      -85.6460   37.7410  -19.8880 O.co2  22  GLU22      -0.2457
     18  OE2      -86.7830   39.5310  -19.9950 O.co2  22  GLU22      -0.2457
     19  N        -80.3760   38.4340  -22.1070 N.am   23  VAL23      -0.1980
     20  CA       -79.2350   37.5940  -22.3410 C.3    23  VAL23       0.1595
     21  C        -77.9630   38.2730  -21.8940 C.2    23  VAL23       0.2287
     22  O        -76.8960   37.8220  -22.0470 O.2    23  VAL23      -0.2864
     23  CB       -79.1520   37.2510  -23.8290 C.3    23  VAL23       0.0276
     24  CG1      -77.9910   36.3690  -24.1600 C.3    23  VAL23       0.0022
     25  CG2      -80.3850   36.5640  -24.3460 C.3    23  VAL23       0.0022
     26  N        -76.3010   38.5600  -18.5420 N.3    26  ASP26      -0.1239
     27  CA       -75.2330   37.6880  -18.8260 C.3    26  ASP26       0.1674
     28  C        -73.9040   38.3320  -18.6280 C.2    26  ASP26       0.2266
     29  O        -72.8550   37.7800  -18.5300 O.2    26  ASP26      -0.2867
     30  CB       -75.3360   37.1680  -20.2470 C.3    26  ASP26       0.1410
     31  CG       -74.3620   36.0920  -20.5030 C.2    26  ASP26       0.3668
     32  OD1      -73.3840   35.9950  -19.7490 O.co2  26  ASP26      -0.2456
     33  OD2      -74.5780   35.3470  -21.4540 O.co2  26  ASP26      -0.2456
     34  N        -72.7000   42.1870  -19.8150 N.3    28  HIS28      -0.1241
     35  CA       -71.7530   43.0190  -20.4800 C.3    28  HIS28       0.1621
     36  C        -72.2380   44.2210  -21.1610 C.2    28  HIS28       0.2264
     37  O        -71.5670   45.0490  -21.5300 O.2    28  HIS28      -0.2867
     38  CB       -71.0810   42.3150  -21.6090 C.3    28  HIS28       0.0745
     39  CG       -72.0530   42.0910  -22.7650 C.ar   28  HIS28       0.0817
     40  ND1      -72.9600   41.1110  -22.7510 N.ar   28  HIS28      -0.2268
     41  CD2      -72.2430   42.7390  -23.9180 C.ar   28  HIS28       0.1154
     42  CE1      -73.6720   41.1590  -23.8520 C.ar   28  HIS28       0.1986
     43  NE2      -73.2570   42.1370  -24.5800 N.ar   28  HIS28      -0.2212
     44  N        -88.6940   40.2210  -16.5770 N.3    81  PHE81      -0.1241
     45  CA       -87.1880   40.3540  -16.4060 C.3    81  PHE81       0.1605
     46  C        -86.6730   41.7120  -15.9700 C.2    81  PHE81       0.2264
     47  O        -85.5180   41.8760  -15.5630 O.2    81  PHE81      -0.2867
     48  CB       -86.5410   40.0730  -17.7990 C.3    81  PHE81       0.0534
     49  CG       -85.1520   39.4140  -17.8610 C.ar   81  PHE81      -0.0203
     50  CD1      -84.9590   38.1280  -17.4610 C.ar   81  PHE81      -0.0042
     51  CD2      -84.0580   40.0950  -18.3720 C.ar   81  PHE81      -0.0042
     52  CE1      -83.7000   37.5480  -17.5750 C.ar   81  PHE81      -0.0003
     53  CE2      -82.8110   39.5150  -18.4870 C.ar   81  PHE81      -0.0003
     54  CZ       -82.6300   38.2430  -18.0910 C.ar   81  PHE81      -0.0000
     55  N        -82.2920   23.3840  -34.9460 N.3   215  LEU215     -0.1245
     56  CA       -82.9500   23.1140  -33.7170 C.3   215  LEU215      0.1561
     57  C        -84.0010   22.1610  -34.0070 C.2   215  LEU215      0.2260
     58  O        -84.4150   21.9850  -35.1570 O.2   215  LEU215     -0.2867
     59  CB       -83.5880   24.3230  -33.1880 C.3   215  LEU215      0.0270
     60  CG       -82.6130   25.4180  -33.0630 C.3   215  LEU215      0.0019
     61  CD1      -83.2870   26.6970  -32.7880 C.3   215  LEU215      0.0001
     62  CD2      -81.6290   25.2110  -31.9280 C.3   215  LEU215      0.0001
     63  N        -86.8620   22.1220  -31.3960 N.3   217  LEU217     -0.1245
     64  CA       -88.0880   22.8510  -30.8000 C.3   217  LEU217      0.1561
     65  C        -89.2530   22.1280  -31.2300 C.2   217  LEU217      0.2260
     66  O        -89.4980   21.9150  -32.3660 O.2   217  LEU217     -0.2867
     67  CB       -88.3260   24.1060  -31.5870 C.3   217  LEU217      0.0270
     68  CG       -87.1990   25.0520  -31.6070 C.3   217  LEU217      0.0019
     69  CD1      -86.9820   25.6620  -32.9860 C.3   217  LEU217      0.0001
     70  CD2      -87.4660   26.1610  -30.6520 C.3   217  LEU217      0.0001
     71  N        -89.0780   32.0550  -28.2690 N.3   224  ASP224     -0.1239
     72  CA       -87.9280   31.2740  -28.5090 C.3   224  ASP224      0.1674
     73  C        -87.0800   31.8340  -29.6140 C.2   224  ASP224      0.2266
     74  O        -85.8800   31.6920  -29.6550 O.2   224  ASP224     -0.2867
     75  CB       -88.3230   29.9050  -28.8650 C.3   224  ASP224      0.1410
     76  CG       -87.1460   29.0100  -28.9030 C.2   224  ASP224      0.3668
     77  OD1      -86.0210   29.4870  -29.0340 O.co2 224  ASP224     -0.2456
     78  OD2      -87.3450   27.8340  -28.8020 O.co2 224  ASP224     -0.2456
     79  N        -86.5290   34.6920  -29.7700 N.3   226  ASN226     -0.1225
     80  CA       -85.7700   35.6980  -29.0770 C.3   226  ASN226      0.1785
     81  C        -84.4580   35.0830  -28.5020 C.2   226  ASN226      0.2597
     82  O        -83.4510   35.7570  -28.3340 O.2   226  ASN226     -0.2718
     83  CB       -86.6700   36.3950  -28.0870 C.3   226  ASN226      0.1169
     84  CG       -87.8690   37.0490  -28.7740 C.2   226  ASN226      0.2627
     85  OD1      -87.7470   37.5980  -29.8630 O.2   226  ASN226     -0.2716
     86  ND2      -89.0440   37.0160  -28.1960 N.am  226  ASN226     -0.0877
     87  N        -84.4520   33.7830  -28.1280 N.am  227  HIS227     -0.1961
     88  CA       -83.1530   33.1000  -27.9700 C.3   227  HIS227      0.1787
     89  C        -82.4910   33.4320  -29.3530 C.2   227  HIS227      0.2620
     90  O        -81.6700   34.2260  -29.5150 O.2   227  HIS227     -0.2715
     91  CB       -83.2400   31.5830  -27.7730 C.3   227  HIS227      0.0785
     92  CG       -82.8880   31.0190  -26.3380 C.ar  227  HIS227      0.0821
     93  ND1      -81.6200   31.0630  -25.7400 N.ar  227  HIS227     -0.2267
     94  CD2      -83.6570   30.4050  -25.4080 C.ar  227  HIS227      0.1154
     95  CE1      -81.6890   30.5260  -24.5250 C.ar  227  HIS227      0.1986
     96  NE2      -82.8990   30.1380  -24.3170 N.ar  227  HIS227     -0.2212
     97  N        -82.8620   32.9390  -30.5270 N.am  228  LEU228     -0.1977
     98  CA       -82.0340   33.2140  -31.7910 C.3   228  LEU228      0.1596
     99  C        -81.2500   34.5310  -31.8910 C.2   228  LEU228      0.2287
    100  O        -80.0240   34.5620  -32.0260 O.2   228  LEU228     -0.2864
    101  CB       -82.8580   33.1640  -33.0640 C.3   228  LEU228      0.0297
    102  CG       -82.0260   33.2270  -34.3490 C.3   228  LEU228      0.0022
    103  CD1      -81.2150   32.0130  -34.6120 C.3   228  LEU228      0.0001
    104  CD2      -82.8710   33.4210  -35.6020 C.3   228  LEU228      0.0001
    105  N        -80.5890   36.9940  -29.8140 N.3   230  SER230     -0.1202
    106  CA       -79.6250   37.3780  -28.8300 C.3   230  SER230      0.2020
    107  C        -78.2600   36.9800  -29.3380 C.2   230  SER230      0.2618
    108  O        -77.2810   37.6680  -29.1440 O.2   230  SER230     -0.2717
    109  CB       -79.9340   36.7720  -27.4880 C.3   230  SER230      0.2103
    110  OG       -79.8690   35.4230  -27.5830 O.3   230  SER230     -0.2182
    111  N        -78.2530   35.8780  -29.9870 N.am  231  ALA231     -0.1979
    112  CA       -77.0480   35.3130  -30.5480 C.3   231  ALA231      0.1597
    113  C        -76.3750   36.2580  -31.4870 C.2   231  ALA231      0.2287
    114  O        -75.2400   36.6600  -31.2180 O.2   231  ALA231     -0.2864
    115  CB       -77.3830   34.0910  -31.3220 C.3   231  ALA231      0.0319
    116  N        -75.2040   39.5500  -29.5160 N.3   234  SER234     -0.1217
    117  CA       -74.1360   39.4010  -28.5100 C.3   234  SER234      0.1889
    118  C        -72.7660   39.3350  -29.1780 C.2   234  SER234      0.2288
    119  O        -71.7870   39.8470  -28.6660 O.2   234  SER234     -0.2866
    120  CB       -74.3550   38.2070  -27.6550 C.3   234  SER234      0.2089
    121  OG       -74.3250   37.0950  -28.4590 O.3   234  SER234     -0.2183
    122  N        -75.7060   32.2970  -36.2240 N.3   270  PHE270     -0.1298
    123  CA       -75.1150   31.8370  -34.9680 C.3   270  PHE270      0.1290
    124  C        -74.9750   30.3850  -35.0480 C.3   270  PHE270      0.2013
    125  O        -76.0380   29.8470  -35.3690 O.3   270  PHE270     -0.2188
    126  CB       -75.9890   32.1890  -33.7770 C.3   270  PHE270      0.0480
    127  CG       -75.4450   32.0450  -32.3550 C.ar  270  PHE270     -0.0206
    128  CD1      -75.5760   30.8780  -31.6770 C.ar  270  PHE270     -0.0042
    129  CD2      -74.8140   33.0800  -31.7330 C.ar  270  PHE270     -0.0042
    130  CE1      -75.0780   30.7470  -30.3770 C.ar  270  PHE270     -0.0003
    131  CE2      -74.3150   32.9480  -30.4330 C.ar  270  PHE270     -0.0003
    132  CZ       -74.4470   31.7810  -29.7560 C.ar  270  PHE270     -0.0000
    133  N        -73.6980   26.9240  -33.2450 N.3   272  PRO272     -0.2102
    134  CA       -73.9690   26.4620  -31.9080 C.3   272  PRO272      0.1504
    135  C        -75.4270   26.3700  -31.7210 C.2   272  PRO272      0.2576
    136  O        -75.9690   26.5220  -30.5960 O.2   272  PRO272     -0.2718
    137  CB       -73.3440   27.4590  -31.0250 C.3   272  PRO272      0.0282
    138  CG       -73.3180   28.6600  -31.8540 C.3   272  PRO272      0.0208
    139  CD       -73.1450   28.2220  -33.2740 C.3   272  PRO272      0.0893
    140  N        -76.0980   26.1240  -32.8380 N.am  273  LEU273     -0.1966
    141  CA       -77.5410   25.9770  -32.8860 C.3   273  LEU273      0.1728
    142  C        -77.9460   24.7200  -32.2080 C.2   273  LEU273      0.2617
    143  O        -79.0660   24.5750  -31.7260 O.2   273  LEU273     -0.2715
    144  CB       -78.0110   25.9660  -34.3390 C.3   273  LEU273      0.0311
    145  CG       -77.6600   27.1940  -35.0930 C.3   273  LEU273      0.0022
    146  CD1      -78.1270   27.1800  -36.5470 C.3   273  LEU273      0.0001
    147  CD2      -78.2710   28.3940  -34.4670 C.3   273  LEU273      0.0001
    148  N        -77.9320   23.7230  -31.9920 N.am  274  THR274     -0.1937
    149  CA       -77.1430   22.6460  -31.4820 C.3   274  THR274      0.2028
    150  C        -77.9780   21.4230  -31.4680 C.2   274  THR274      0.2643
    151  O        -77.2950   20.2950  -31.6110 O.2   274  THR274     -0.2714
    152  CB       -76.6660   22.9410  -30.0640 C.3   274  THR274      0.1808
    153  OG1      -77.7630   23.1340  -29.2040 O.3   274  THR274     -0.2208
    154  CG2      -75.8030   24.1410  -29.9890 C.3   274  THR274      0.0379
    155  N        -79.3000   21.3730  -31.0710 N.am  275  SER275     -0.1935
    156  CA       -80.2580   20.4100  -30.6540 C.3   275  SER275      0.2055
    157  C        -80.0290   20.0090  -29.2060 C.2   275  SER275      0.2643
    158  O        -78.8740   19.6690  -28.8800 O.2   275  SER275     -0.2714
    159  CB       -80.2000   19.2430  -31.5780 C.3   275  SER275      0.2130
    160  OG       -80.5610   19.5760  -32.9030 O.3   275  SER275     -0.2179
    161  N        -81.0180   20.1650  -28.3790 N.am  276  ARG276     -0.1954
    162  CA       -80.9240   19.8730  -26.9610 C.3   276  ARG276      0.1869
    163  C        -80.2350   18.5980  -26.7390 C.2   276  ARG276      0.2309
    164  O        -79.1700   18.5240  -26.1140 O.2   276  ARG276     -0.2863
    165  CB       -81.9240   19.8190  -24.8860 C.3   276  ARG276      0.0038
    166  CG       -81.4610   20.5080  -23.7540 C.3   276  ARG276      0.0469
    167  CD       -82.6200   20.4660  -22.8420 C.3   276  ARG276      0.2204
    168  NE       -82.7760   21.6090  -22.1770 N.pl3 276  ARG276     -0.0865
    169  CZ       -83.4390   22.6110  -22.5480 C.cat 276  ARG276      0.5346
    170  NH1      -84.0760   22.6710  -23.7080 N.pl3 276  ARG276      0.1354
    171  NH2      -83.5170   23.6260  -21.7540 N.pl3 276  ARG276      0.1354
    172  N        -77.1710   17.2870  -28.5610 N.3   279  GLN279     -0.1245
    173  CA       -76.2220   18.1360  -27.9170 C.3   279  GLN279      0.1566
    174  C        -74.8140   17.6660  -28.1210 C.2   279  GLN279      0.2260
    175  O        -73.8920   18.3980  -28.3110 O.2   279  GLN279     -0.2867
    176  CB       -76.5320   18.2700  -26.4260 C.3   279  GLN279      0.0367
    177  CG       -76.2510   17.0720  -25.6120 C.3   279  GLN279      0.0905
    178  CD       -76.7820   17.1610  -24.1980 C.2   279  GLN279      0.2608
    179  OE1      -77.3680   18.1280  -23.8160 O.2   279  GLN279     -0.2717
    180  NE2      -76.6920   16.2690  -23.2570 N.am  279  GLN279     -0.0878
    181  N        -65.9720   33.4140  -30.6540 N.3   318  ARG318     -0.1245
    182  CA       -65.5560   33.6850  -29.2940 C.3   318  ARG318      0.1563
    183  C        -65.6670   32.4960  -28.4240 C.2   318  ARG318      0.2260
    184  O        -66.3390   32.4910  -27.3550 O.2   318  ARG318     -0.2867
    185  CB       -66.3710   34.7790  -28.7020 C.3   318  ARG318      0.0307
    186  CG       -67.7990   34.4270  -28.4050 C.3   318  ARG318      0.0489
    187  CD       -68.6030   35.6090  -28.0520 C.3   318  ARG318      0.2205
    188  NE       -69.9760   35.2920  -27.7520 N.pl3 318  ARG318     -0.0865
    189  CZ       -70.8870   36.1500  -27.4160 C.cat 318  ARG318      0.5346
    190  NH1      -70.5700   37.3810  -27.3380 N.pl3 318  ARG318      0.1354
    191  NH2      -72.1120   35.7770  -27.1610 N.pl3 318  ARG318      0.1354
    192  N        -69.7470   32.3000  -25.0120 N.3   358  PRO358     -0.2102
    193  CA       -71.0600   32.5620  -24.4490 C.3   358  PRO358      0.1504
    194  C        -71.3830   31.6980  -23.2540 C.2   358  PRO358      0.2576
    195  O        -71.1540   30.5230  -23.2890 O.2   358  PRO358     -0.2718
    196  CB       -71.9970   32.2930  -25.6300 C.3   358  PRO358      0.0282
    197  CG       -71.1350   32.3700  -26.8280 C.3   358  PRO358      0.0208
    198  CD       -69.8610   31.7470  -26.4440 C.3   358  PRO358      0.0893
    199  N        -71.9170   32.3160  -22.2220 N.am  359  ARG359     -0.1966
    200  CA       -72.3230   31.6650  -21.0050 C.3   359  ARG359      0.1729
    201  C        -73.0970   30.4590  -21.3270 C.2   359  ARG359      0.2617
    202  O        -74.2390   30.5250  -21.8070 O.2   359  ARG359     -0.2715
    203  CB       -73.1360   32.5560  -20.1140 C.3   359  ARG359      0.0348
    204  CG       -73.4140   32.0160  -18.7290 C.3   359  ARG359      0.0492
    205  CD       -74.4160   32.8330  -17.9850 C.3   359  ARG359      0.2205
    206  NE       -74.6930   32.3310  -16.6510 N.pl3 359  ARG359     -0.0865
    207  CZ       -75.5290   32.8670  -15.7940 C.cat 359  ARG359      0.5346
    208  NH1      -76.1740   33.9250  -16.1310 N.pl3 359  ARG359      0.1354
    209  NH2      -75.7210   32.3440  -14.6010 N.pl3 359  ARG359      0.1354
    210  N        -72.4570   29.3790  -21.0840 N.am  360  GLY360     -0.1940
    211  CA       -73.0240   28.1050  -21.3290 C.3   360  GLY360      0.2014
    212  C        -73.0930   27.5500  -22.7440 C.2   360  GLY360      0.2635
    213  O        -73.7770   26.5810  -22.9930 O.2   360  GLY360     -0.2714
    214  N        -72.5070   27.7860  -23.9390 N.am  361  LEU361     -0.2030
    215  CA       -72.1830   27.1330  -25.1940 C.3   361  LEU361      0.1282
    216  C        -70.7960   26.5580  -25.1400 C.3   361  LEU361      0.2036
    217  O        -70.4960   25.4280  -25.6760 O.3   361  LEU361     -0.2185
    218  CB       -72.2970   28.0720  -26.3660 C.3   361  LEU361      0.0244
    219  CG       -72.2110   27.4960  -27.7690 C.3   361  LEU361      0.0018
    220  CD1      -73.4450   26.7210  -28.0820 C.3   361  LEU361      0.0001
    221  CD2      -72.0070   28.5400  -28.8090 C.3   361  LEU361      0.0001
@<TRIPOS>BOND
     1   146   145    1
     2   122   123    1
     3   104   102    1
     4   125   124    1
     5    58    57    2
     6   145   147    1
     7   145   144    1
     8   124   123    1
     9   123   126    1
    10    55    56    1
    11   103   102    1
    12   102   101    1
    13   144   141    1
    14    57    56    1
    15   126   127    1
    16    56    59    1
    17   139   133    1
    18   139   138    1
    19   133   134    1
    20    59    60    1
    21   101    98    1
    22    60    61    1
    23    60    62    1
    24    69    68    1
    25   160   159    1
    26   141   140    1
    27   141   142    1
    28   140   135   am
    29    66    65    2
    30   127   129   ar
    31   127   128   ar
    32   142   148   am
    33   142   143    2
    34   100    99    2
    35   148   149    1
    36   134   135    1
    37   134   137    1
    38    99    98    1
    39   138   137    1
    40    98    97    1
    41   129   131   ar
    42   135   136    2
    43   128   130   ar
    44   151   150    2
    45    68    67    1
    46    68    70    1
    47    67    64    1
    48   159   156    1
    49   113   114    2
    50   113   112    1
    51   149   150    1
    52   149   152    1
    53   150   155   am
    54    63    64    1
    55   115   112    1
    56    65    64    1
    57   155   156    1
    58   156   157    1
    59   181   182    1
    60   112   111    1
    61    97    89   am
    62   131   132   ar
    63   130   132   ar
    64   152   154    1
    65   152   153    1
    66   111   107   am
    67    85    84    2
    68   105   106    1
    69    79    80    1
    70    74    73    2
    71    73    72    1
    72   116   117    1
    73    90    89    2
    74    89    88    1
    75   107   108    2
    76   107   106    1
    77   182   185    1
    78   182   183    1
    79   157   158    2
    80   157   161   am
    81   118   119    2
    82   118   117    1
    83    80    81    1
    84    80    83    1
    85    77    76   ar
    86    76    75    1
    87    76    78   ar
    88    75    72    1
    89   106   109    1
    90   221   219    1
    91    84    86   am
    92    84    83    1
    93   185   186    1
    94   172   173    1
    95   117   120    1
    96    72    71    1
    97    81    82    2
    98    81    87   am
    99   121   120    1
   100   183   184    2
   101   186   187    1
   102   161   162    1
   103   175   174    2
   104    87    88    1
   105   174   173    1
   106   220   219    1
   107   187   188    1
   108    88    91    1
   109   173   176    1
   110    91    92    1
   111   219   218    1
   112   188   189    2
   113   110   109    1
   114   189   190    1
   115   189   191    1
   116   162   163    1
   117   197   198    1
   118   197   196    1
   119   163   164    2
   120     5     6    1
   121     5     2    1
   122   198   192    1
   123   176   177    1
   124   218   215    1
   125    92    93   ar
   126    92    94   ar
   127     6     7    1
   128     3     4    2
   129     3     2    1
   130    93    95   ar
   131   217   216    1
   132     7     8    1
   133   196   193    1
   134   177   178    1
   135     2     1    1
   136    94    96   ar
   137   215   216    1
   138   215   214    1
   139   192   193    1
   140   165   166    1
   141     8     9    1
   142    43    41   ar
   143    43    42   ar
   144    95    96   ar
   145   193   194    1
   146    25    23    1
   147   178   179    2
   148   178   180   am
   149    24    23    1
   150   214   212   am
   151    41    39   ar
   152    42    40   ar
   153    23    20    1
   154   166   167    1
   155   170   169    1
   156   195   194    2
   157   194   199   am
   158   213   212    2
   159   167   168    1
   160    39    40   ar
   161    39    38    1
   162   212   211    1
   163   169   168    2
   164   169   171    1
   165    10    11    1
   166    20    19    1
   167    20    21    1
   168   199   200    1
   169    19    12   am
   170    22    21    2
   171   202   201    2
   172    38    35    1
   173    37    36    2
   174    33    31   ar
   175   211   210    1
   176   201   210   am
   177   201   200    1
   178    12    11    1
   179    12    13    2
   180    11    14    1
   181    36    35    1
   182   200   203    1
   183    14    15    1
   184    15    16    1
   185    31    30    1
   186    31    32   ar
   187    35    34    1
   188    30    27    1
   189    16    18   ar
   190    16    17   ar
   191   203   204    1
   192    27    28    1
   193    27    26    1
   194   204   205    1
   195    28    29    2
   196    53    51   ar
   197    53    54   ar
   198    51    49   ar
   199    54    52   ar
   200   205   206    1
   201    49    48    1
   202    49    50   ar
   203    48    45    1
   204    52    50   ar
   205   206   207    2
   206    44    45    1
   207    45    46    1
   208   208   207    1
   209    46    47    2
   210   207   209    1
