@<TRIPOS>MOLECULE
tmp/1tufA00.pdb
 118 113 0 0 0
SMALL
GASTEIGER

@<TRIPOS>ATOM
      1  N         78.1070    9.9100   27.1100 N.3   157  ARG157     -0.1245
      2  CA        77.1700    9.7160   26.0150 C.3   157  ARG157      0.1563
      3  C         78.0260    9.7630   24.7670 C.2   157  ARG157      0.2260
      4  O         78.6730   10.7740   24.4650 O.2   157  ARG157     -0.2867
      5  CB        76.0980   10.8130   25.9920 C.3   157  ARG157      0.0307
      6  CG        75.0550   10.6190   24.8960 C.3   157  ARG157      0.0489
      7  CD        73.8960   11.6110   24.9990 C.3   157  ARG157      0.2205
      8  NE        72.8920   11.3520   23.9620 N.pl3 157  ARG157     -0.0865
      9  CZ        71.6450   11.8230   23.9660 C.cat 157  ARG157      0.5346
     10  NH1       71.2190   12.5930   24.9610 N.pl3 157  ARG157      0.1354
     11  NH2       70.8230   11.5100   22.9700 N.pl3 157  ARG157      0.1354
     12  N         73.8510   16.0780   20.6050 N.3   179  PHE179     -0.1241
     13  CA        74.2530   15.1590   21.6660 C.3   179  PHE179      0.1605
     14  C         75.5250   14.3550   21.4380 C.2   179  PHE179      0.2264
     15  O         76.0980   14.3510   20.3580 O.2   179  PHE179     -0.2867
     16  CB        73.1340   14.1590   21.9190 C.3   179  PHE179      0.0534
     17  CG        71.7870   14.7830   22.0630 C.ar  179  PHE179     -0.0203
     18  CD1       71.4820   15.5440   23.1800 C.ar  179  PHE179     -0.0042
     19  CD2       70.8140   14.5950   21.0880 C.ar  179  PHE179     -0.0042
     20  CE1       70.2300   16.1080   23.3330 C.ar  179  PHE179     -0.0003
     21  CE2       69.5520   15.1560   21.2290 C.ar  179  PHE179     -0.0003
     22  CZ        69.2600   15.9160   22.3570 C.ar  179  PHE179     -0.0000
     23  N         71.9370    6.9500   23.3190 N.3   209  HIS209     -0.1226
     24  CA        70.5030    6.9830   23.0430 C.3   209  HIS209      0.1752
     25  C         70.3710    7.2550   21.5440 C.2   209  HIS209      0.2596
     26  O         70.7700    8.3170   21.0700 O.2   209  HIS209     -0.2718
     27  CB        69.8060    8.0830   23.8580 C.3   209  HIS209      0.0759
     28  CG        68.3240    8.1420   23.6440 C.ar  209  HIS209      0.0818
     29  ND1       67.7180    9.1340   22.9040 N.ar  209  HIS209     -0.2268
     30  CD2       67.3350    7.2930   24.0150 C.ar  209  HIS209      0.1154
     31  CE1       66.4200    8.8910   22.8230 C.ar  209  HIS209      0.1986
     32  NE2       66.1620    7.7790   23.4890 N.ar  209  HIS209     -0.2212
     33  N         69.7980    6.2940   20.8170 N.am  210  ILE210     -0.1966
     34  CA        69.6480    6.3610   19.3600 C.3   210  ILE210      0.1727
     35  C         68.3600    6.9080   18.7600 C.2   210  ILE210      0.2617
     36  O         68.3040    7.1590   17.5540 O.2   210  ILE210     -0.2715
     37  CB        69.8350    4.9690   18.7150 C.3   210  ILE210      0.0290
     38  CG1       68.7730    4.0070   19.2610 C.3   210  ILE210      0.0022
     39  CG2       71.2400    4.4680   18.9460 C.3   210  ILE210      0.0023
     40  CD1       68.6920    2.6710   18.5240 C.3   210  ILE210      0.0001
     41  N         67.3180    7.0710   19.5600 N.am  211  GLY211     -0.1940
     42  CA        66.0880    7.5860   18.9890 C.3   211  GLY211      0.2014
     43  C         64.8630    7.2960   19.8170 C.2   211  GLY211      0.2640
     44  O         64.9590    6.9020   20.9760 O.2   211  GLY211     -0.2714
     45  N         63.7000    7.4900   19.2100 N.am  212  SER212     -0.1935
     46  CA        62.4450    7.2690   19.9040 C.3   212  SER212      0.2055
     47  C         61.3920    6.7150   18.9580 C.2   212  SER212      0.2642
     48  O         61.4360    6.9380   17.7420 O.2   212  SER212     -0.2714
     49  CB        61.9490    8.5780   20.5350 C.3   212  SER212      0.2130
     50  OG        60.6950    8.3900   21.1690 O.3   212  SER212     -0.2179
     51  N         60.4420    5.9990   19.5470 N.am  213  GLN213     -0.1976
     52  CA        59.3560    5.3530   18.8270 C.3   213  GLN213      0.1601
     53  C         59.8790    4.4090   17.7390 C.2   213  GLN213      0.2287
     54  O         59.3100    4.3100   16.6480 O.2   213  GLN213     -0.2864
     55  CB        58.4150    6.3970   18.2320 C.3   213  GLN213      0.0394
     56  CG        57.1490    5.8150   17.6000 C.3   213  GLN213      0.0908
     57  CD        56.4270    4.8460   18.5190 C.2   213  GLN213      0.2608
     58  OE1       56.5340    4.9370   19.7430 O.2   213  GLN213     -0.2717
     59  NE2       55.6730    3.9180   17.9320 N.am  213  GLN213     -0.0878
     60  N         58.3420    6.4290   26.8830 N.3   292  ARG292     -0.1245
     61  CA        57.0700    6.1300   26.2510 C.3   292  ARG292      0.1563
     62  C         56.6650    4.6760   26.5100 C.2   292  ARG292      0.2260
     63  O         55.4860    4.3800   26.7110 O.2   292  ARG292     -0.2867
     64  CB        57.1960    6.3770   24.7480 C.3   292  ARG292      0.0307
     65  CG        55.8940    6.3760   23.9720 C.3   292  ARG292      0.0489
     66  CD        56.1850    6.2000   22.4840 C.3   292  ARG292      0.2205
     67  NE        57.2310    7.1070   22.0100 N.pl3 292  ARG292     -0.0865
     68  CZ        57.0550    8.4100   21.7990 C.cat 292  ARG292      0.5346
     69  NH1       55.8680    8.9640   22.0170 N.pl3 292  ARG292      0.1354
     70  NH2       58.0660    9.1560   21.3690 N.pl3 292  ARG292      0.1354
     71  N         50.7700   16.0940   20.9340 N.3   328  ARG328     -0.1245
     72  CA        51.2250   15.1230   19.9390 C.3   328  ARG328      0.1563
     73  C         50.5920   15.1920   18.5250 C.2   328  ARG328      0.2260
     74  O         51.3100   15.3460   17.5320 O.2   328  ARG328     -0.2867
     75  CB        51.1180   13.7090   20.5280 C.3   328  ARG328      0.0307
     76  CG        51.8290   12.6470   19.7180 C.3   328  ARG328      0.0489
     77  CD        52.1240   11.3840   20.5390 C.3   328  ARG328      0.2205
     78  NE        52.9690   10.4770   19.7660 N.pl3 328  ARG328     -0.0865
     79  CZ        52.5250    9.6730   18.8050 C.cat 328  ARG328      0.5346
     80  NH1       51.2330    9.6420   18.5040 N.pl3 328  ARG328      0.1354
     81  NH2       53.3820    8.9360   18.1110 N.pl3 328  ARG328      0.1354
     82  N         53.1220   16.6410   15.4540 N.3   332  TYR332     -0.1241
     83  CA        53.7630   15.6710   14.5680 C.3   332  TYR332      0.1605
     84  C         52.7960   14.9960   13.5970 C.2   332  TYR332      0.2264
     85  O         53.2200   14.2260   12.7380 O.2   332  TYR332     -0.2867
     86  CB        54.4450   14.5910   15.4200 C.3   332  TYR332      0.0534
     87  CG        55.3240   15.1170   16.5470 C.ar  332  TYR332     -0.0201
     88  CD1       56.6320   15.5580   16.3000 C.ar  332  TYR332     -0.0009
     89  CD2       54.8580   15.1490   17.8620 C.ar  332  TYR332     -0.0009
     90  CE1       57.4560   16.0120   17.3370 C.ar  332  TYR332      0.0417
     91  CE2       55.6710   15.6020   18.9050 C.ar  332  TYR332      0.0417
     92  CZ        56.9670   16.0290   18.6360 C.ar  332  TYR332      0.1957
     93  OH        57.7620   16.4660   19.6770 O.3   332  TYR332     -0.2866
     94  N         50.9440   12.8600   14.4190 N.3   334  ALA334     -0.1245
     95  CA        51.0310   11.4770   14.8700 C.3   334  ALA334      0.1562
     96  C         49.6580   10.8600   15.1250 C.2   334  ALA334      0.2260
     97  O         48.6850   11.5660   15.4050 O.2   334  ALA334     -0.2867
     98  CB        51.8890   11.3990   16.1230 C.3   334  ALA334      0.0290
     99  N         54.4500   11.9900   26.9880 N.3   386  TYR386     -0.1241
    100  CA        54.4950   13.1840   26.1720 C.3   386  TYR386      0.1605
    101  C         53.0950   13.7540   25.9280 C.2   386  TYR386      0.2264
    102  O         52.7910   14.2050   24.8300 O.2   386  TYR386     -0.2867
    103  CB        55.1870   12.8450   24.8450 C.3   386  TYR386      0.0534
    104  CG        56.5460   12.2000   25.0440 C.ar  386  TYR386     -0.0201
    105  CD1       57.6200   12.9410   25.5490 C.ar  386  TYR386     -0.0009
    106  CD2       56.7440   10.8370   24.7860 C.ar  386  TYR386     -0.0009
    107  CE1       58.8560   12.3440   25.7980 C.ar  386  TYR386      0.0417
    108  CE2       57.9750   10.2300   25.0320 C.ar  386  TYR386      0.0417
    109  CZ        59.0250   10.9870   25.5400 C.ar  386  TYR386      0.1957
    110  OH        60.2320   10.3910   25.8090 O.3   386  TYR386     -0.2866
    111  N         53.9330   17.9420   27.8950 N.3   390  MET390     -0.1245
    112  CA        54.1300   18.9460   26.8570 C.3   390  MET390      0.1570
    113  C         52.9250   19.8750   26.7610 C.2   390  MET390      0.2261
    114  O         52.8280   20.6760   25.8420 O.2   390  MET390     -0.2867
    115  CB        54.3730   18.2810   25.5000 C.3   390  MET390      0.0387
    116  CG        55.5590   17.3360   25.4930 C.3   390  MET390      0.0595
    117  SD        56.1780   17.0320   23.8250 S.3   390  MET390     -0.1393
    118  CE        54.6960   16.3270   22.9750 C.3   390  MET390      0.0692
@<TRIPOS>BOND
     1    85    84    2
     2    84    83    1
     3    94    95    1
     4    83    86    1
     5    83    82    1
     6    95    96    1
     7    95    98    1
     8    96    97    2
     9    86    87    1
    10    88    87   ar
    11    88    90   ar
    12    87    89   ar
    13    54    53    2
    14    90    92   ar
    15    74    73    2
    16    36    35    2
    17    56    55    1
    18    56    57    1
    19    53    52    1
    20    48    47    2
    21    89    91   ar
    22    59    57   am
    23    81    79    1
    24    55    52    1
    25    80    79    1
    26    57    58    2
    27    40    38    1
    28    73    72    1
    29    92    91   ar
    30    92    93    1
    31    37    39    1
    32    37    38    1
    33    37    34    1
    34    35    34    1
    35    35    41   am
    36    79    78    2
    37    52    51    1
    38    47    51   am
    39    47    46    1
    40    42    41    1
    41    42    43    1
    42    45    43   am
    43    45    46    1
    44    34    33    1
    45    76    75    1
    46    76    77    1
    47    78    77    1
    48    43    44    2
    49    46    49    1
    50    72    75    1
    51    72    71    1
    52    15    14    2
    53    49    50    1
    54    12    13    1
    55    33    25   am
    56    26    25    2
    57    19    21   ar
    58    19    17   ar
    59    21    22   ar
    60    70    68    1
    61    14    13    1
    62    25    24    1
    63    13    16    1
    64    68    67    2
    65    68    69    1
    66    16    17    1
    67    67    66    1
    68    17    18   ar
    69    22    20   ar
    70    66    65    1
    71    31    29   ar
    72    31    32   ar
    73    29    28   ar
    74    11     9    1
    75   118   117    1
    76    24    23    1
    77    24    27    1
    78    18    20   ar
    79    32    30   ar
    80    28    27    1
    81    28    30   ar
    82   117   116    1
    83     8     9    2
    84     8     7    1
    85     9    10    1
    86    65    64    1
    87     4     3    2
    88    64    61    1
    89     3     2    1
    90   106   108   ar
    91   106   104   ar
    92   102   101    2
    93   103   104    1
    94   103   100    1
    95     6     7    1
    96     6     5    1
    97   108   109   ar
    98   104   105   ar
    99   116   115    1
   100   115   112    1
   101   109   107   ar
   102   109   110    1
   103   105   107   ar
   104   114   113    2
   105   101   100    1
   106     5     2    1
   107     2     1    1
   108   100    99    1
   109    61    62    1
   110    61    60    1
   111    62    63    2
   112   113   112    1
   113   112   111    1
