@<TRIPOS>MOLECULE
tmp/1tujA00.pdb
 128 118 0 0 0
SMALL
GASTEIGER

@<TRIPOS>ATOM
      1  N         -5.8360    6.1890    7.0110 N.3     7  VAL7       -0.1245
      2  CA        -6.5770    4.9910    6.6380 C.3     7  VAL7        0.1561
      3  C         -7.9100    5.3410    5.9780 C.2     7  VAL7        0.2260
      4  O         -8.4010    4.5980    5.1290 O.2     7  VAL7       -0.2867
      5  CB        -6.8350    4.0910    7.8620 C.3     7  VAL7        0.0252
      6  CG1       -7.5360    2.8060    7.4460 C.3     7  VAL7        0.0019
      7  CG2       -5.5300    3.7830    8.5800 C.3     7  VAL7        0.0019
      8  N         -6.7260    6.7830    2.1530 N.3    10  TYR10      -0.1227
      9  CA        -6.2380    5.7170    1.2810 C.3    10  TYR10       0.1736
     10  C         -7.3470    4.7220    0.9510 C.2    10  TYR10       0.2595
     11  O         -7.3320    4.0900   -0.1060 O.2    10  TYR10      -0.2718
     12  CB        -5.0650    4.9810    1.9330 C.3    10  TYR10       0.0548
     13  CG        -3.7260    5.6540    1.7230 C.ar   10  TYR10      -0.0200
     14  CD1       -3.1800    5.7760    0.4510 C.ar   10  TYR10      -0.0009
     15  CD2       -3.0030    6.1600    2.7980 C.ar   10  TYR10      -0.0009
     16  CE1       -1.9530    6.3810    0.2560 C.ar   10  TYR10       0.0417
     17  CE2       -1.7760    6.7690    2.6100 C.ar   10  TYR10       0.0417
     18  CZ        -1.2570    6.8760    1.3370 C.ar   10  TYR10       0.1957
     19  OH        -0.0350    7.4790    1.1460 O.3    10  TYR10      -0.2866
     20  N         -8.3060    4.5880    1.8590 N.am   11  MET11      -0.1979
     21  CA        -9.4200    3.6660    1.6660 C.3    11  MET11       0.1605
     22  C        -10.4950    4.2820    0.7750 C.2    11  MET11       0.2287
     23  O        -10.8770    3.7040   -0.2400 O.2    11  MET11      -0.2864
     24  CB       -10.0190    3.2720    3.0180 C.3    11  MET11       0.0413
     25  CG       -11.2330    2.3660    2.9100 C.3    11  MET11       0.0598
     26  SD       -11.8040    1.7710    4.5150 S.3    11  MET11      -0.1393
     27  CE       -10.3750    0.8380    5.0590 C.3    11  MET11       0.0692
     28  N         -9.8290    4.6770   -2.9130 N.3    14  LEU14      -0.1245
     29  CA        -9.9540    3.5130   -3.7850 C.3    14  LEU14       0.1561
     30  C        -10.8450    2.4440   -3.1530 C.2    14  LEU14       0.2260
     31  O        -10.5720    1.2500   -3.2670 O.2    14  LEU14      -0.2867
     32  CB        -8.5700    2.9240   -4.0790 C.3    14  LEU14       0.0270
     33  CG        -7.6370    3.8230   -4.8940 C.3    14  LEU14       0.0019
     34  CD1       -6.2310    3.2470   -4.9200 C.3    14  LEU14       0.0001
     35  CD2       -8.1670    4.0020   -6.3090 C.3    14  LEU14       0.0001
     36  N        -10.9240   -1.4910   -3.9450 N.3    18  ILE18      -0.1245
     37  CA       -10.3300   -2.4030   -2.9710 C.3    18  ILE18       0.1561
     38  C        -11.2080   -3.6360   -2.7450 C.2    18  ILE18       0.2260
     39  O        -10.7000   -4.7280   -2.4850 O.2    18  ILE18      -0.2867
     40  CB       -10.0700   -1.6940   -1.6220 C.3    18  ILE18       0.0252
     41  CG1       -8.8500   -0.7760   -1.7440 C.3    18  ILE18       0.0019
     42  CG2       -9.8680   -2.7070   -0.4990 C.3    18  ILE18       0.0019
     43  CD1       -8.5810    0.0510   -0.5060 C.3    18  ILE18       0.0001
     44  N         -3.4750   -7.4430   -0.9780 N.3    51  LYS51      -0.1245
     45  CA        -3.4360   -6.0010   -0.8010 C.3    51  LYS51       0.1561
     46  C         -2.6100   -5.3690   -1.9180 C.2    51  LYS51       0.2260
     47  O         -2.7450   -4.1790   -2.2020 O.2    51  LYS51      -0.2867
     48  CB        -2.8460   -5.6280    0.5630 C.3    51  LYS51       0.0271
     49  CG        -2.6280   -4.1340    0.7490 C.3    51  LYS51       0.0035
     50  CD        -2.4380   -3.7770    2.2130 C.3    51  LYS51       0.0206
     51  CE        -1.9110   -2.3600    2.3770 C.3    51  LYS51       0.1093
     52  NZ        -0.5240   -2.2220    1.8490 N.3    51  LYS51      -0.1314
     53  N         -4.4400   -3.8120   -5.0990 N.3    54  VAL54      -0.1231
     54  CA        -4.8490   -2.4140   -5.1430 C.3    54  VAL54       0.1692
     55  C         -3.7550   -1.5650   -5.7820 C.2    54  VAL54       0.2591
     56  O         -4.0140   -0.4720   -6.2870 O.2    54  VAL54      -0.2718
     57  CB        -5.1620   -1.8740   -3.7340 C.3    54  VAL54       0.0266
     58  CG1       -5.8240   -0.5060   -3.8150 C.3    54  VAL54       0.0020
     59  CG2       -6.0380   -2.8530   -2.9700 C.3    54  VAL54       0.0020
     60  N         -2.5310   -2.0840   -5.7560 N.am   55  MET55      -0.1979
     61  CA        -1.3870   -1.3900   -6.3360 C.3    55  MET55       0.1605
     62  C         -1.4200   -1.4840   -7.8570 C.2    55  MET55       0.2287
     63  O         -1.3390   -0.4740   -8.5560 O.2    55  MET55      -0.2864
     64  CB        -0.0810   -1.9930   -5.8140 C.3    55  MET55       0.0413
     65  CG        -0.0120   -2.0930   -4.2990 C.3    55  MET55       0.0598
     66  SD         1.5140   -2.8640   -3.7280 S.3    55  MET55      -0.1393
     67  CE         1.2530   -2.8670   -1.9560 C.3    55  MET55       0.0692
     68  N         -3.9200    0.6800   -9.7950 N.3    58  ILE58      -0.1245
     69  CA        -3.6190    2.0670  -10.1390 C.3    58  ILE58       0.1561
     70  C         -2.3600    2.1630  -10.9960 C.2    58  ILE58       0.2260
     71  O         -1.6970    3.1990  -11.0250 O.2    58  ILE58      -0.2867
     72  CB        -3.4390    2.9360   -8.8790 C.3    58  ILE58       0.0252
     73  CG1       -2.3250    2.3670   -7.9960 C.3    58  ILE58       0.0019
     74  CG2       -4.7480    3.0240   -8.1080 C.3    58  ILE58       0.0019
     75  CD1       -1.9900    3.2380   -6.8030 C.3    58  ILE58       0.0001
     76  N          0.5860    0.5230  -10.6720 N.3    60  MET60      -0.1245
     77  CA         1.7810    0.6460   -9.8420 C.3    60  MET60       0.1570
     78  C          2.5110   -0.6900   -9.7580 C.2    60  MET60       0.2261
     79  O          3.6890   -0.7480   -9.4080 O.2    60  MET60      -0.2867
     80  CB         1.4180    1.1200   -8.4330 C.3    60  MET60       0.0387
     81  CG         2.6110    1.6140   -7.6290 C.3    60  MET60       0.0595
     82  SD         2.5170    1.1620   -5.8870 S.3    60  MET60      -0.1393
     83  CE         3.1160   -0.5260   -5.9390 C.3    60  MET60       0.0692
     84  N          1.6770    6.5160   -6.9930 N.3    71  VAL71      -0.1245
     85  CA         1.4140    6.7700   -5.5840 C.3    71  VAL71       0.1561
     86  C          1.7880    8.1970   -5.2260 C.2    71  VAL71       0.2260
     87  O          1.0860    8.8620   -4.4680 O.2    71  VAL71      -0.2867
     88  CB         2.1900    5.7960   -4.6760 C.3    71  VAL71       0.0252
     89  CG1        1.7430    5.9370   -3.2300 C.3    71  VAL71       0.0019
     90  CG2        2.0170    4.3660   -5.1580 C.3    71  VAL71       0.0019
     91  N         -1.2100   10.2960   -5.7550 N.3    74  MET74      -0.1245
     92  CA        -2.3490   10.1980   -4.8570 C.3    74  MET74       0.1570
     93  C         -1.9950   10.7190   -3.4750 C.2    74  MET74       0.2261
     94  O         -2.8530   11.2410   -2.7710 O.2    74  MET74      -0.2867
     95  CB        -2.8650    8.7600   -4.7790 C.3    74  MET74       0.0387
     96  CG        -1.7700    7.7200   -4.6580 C.3    74  MET74       0.0595
     97  SD        -2.4130    6.0350   -4.5900 S.3    74  MET74      -0.1393
     98  CE        -3.4080    6.1060   -3.1030 C.3    74  MET74       0.0692
     99  N          7.1060   -4.6760    0.6280 N.3   113  TYR113     -0.1241
    100  CA         6.6800   -3.2940    0.4340 C.3   113  TYR113      0.1605
    101  C          5.6370   -2.8750    1.4700 C.2   113  TYR113      0.2264
    102  O          5.5240   -1.6940    1.8000 O.2   113  TYR113     -0.2867
    103  CB         6.1150   -3.1120   -0.9750 C.3   113  TYR113      0.0534
    104  CG         5.9560   -1.6650   -1.3820 C.ar  113  TYR113     -0.0201
    105  CD1        7.0550   -0.9130   -1.7740 C.ar  113  TYR113     -0.0009
    106  CD2        4.7100   -1.0540   -1.3770 C.ar  113  TYR113     -0.0009
    107  CE1        6.9190    0.4090   -2.1480 C.ar  113  TYR113      0.0417
    108  CE2        4.5640    0.2700   -1.7510 C.ar  113  TYR113      0.0417
    109  CZ         5.6720    0.9970   -2.1360 C.ar  113  TYR113      0.1957
    110  OH         5.5320    2.3130   -2.5090 O.3   113  TYR113     -0.2866
    111  N          6.0260   -0.1080    4.9140 N.3   117  TYR117     -0.1241
    112  CA         4.9750    0.9030    4.9570 C.3   117  TYR117      0.1605
    113  C          4.3510    0.9930    6.3470 C.2   117  TYR117      0.2264
    114  O          3.8490    2.0460    6.7430 O.2   117  TYR117     -0.2867
    115  CB         3.9030    0.5960    3.9070 C.3   117  TYR117      0.0534
    116  CG         3.3270    1.8260    3.2390 C.ar  117  TYR117     -0.0201
    117  CD1        4.1570    2.8310    2.7540 C.ar  117  TYR117     -0.0009
    118  CD2        1.9560    1.9820    3.0920 C.ar  117  TYR117     -0.0009
    119  CE1        3.6360    3.9540    2.1410 C.ar  117  TYR117      0.0417
    120  CE2        1.4260    3.1040    2.4810 C.ar  117  TYR117      0.0417
    121  CZ         2.2700    4.0850    2.0070 C.ar  117  TYR117      0.1957
    122  OH         1.7460    5.2030    1.4000 O.3   117  TYR117     -0.2866
    123  N          0.7550    2.8970    7.7980 N.3   123  SER123     -0.1217
    124  CA        -0.3510    2.6890    6.8670 C.3   123  SER123      0.1889
    125  C          0.0290    3.1470    5.4630 C.2   123  SER123      0.2288
    126  O         -0.8040    3.6620    4.7170 O.2   123  SER123     -0.2866
    127  CB        -1.5950    3.4400    7.3470 C.3   123  SER123      0.2089
    128  OG        -2.6970    3.2090    6.4840 O.3   123  SER123     -0.2183
@<TRIPOS>BOND
     1    71    70    2
     2    70    69    1
     3    76    77    1
     4    69    68    1
     5    69    72    1
     6    77    78    1
     7    77    80    1
     8    78    79    2
     9    72    74    1
    10    72    73    1
    11    63    62    2
    12    80    81    1
    13    73    75    1
    14    62    61    1
    15    81    82    1
    16    84    85    1
    17    61    64    1
    18    61    60    1
    19    35    33    1
    20    56    55    2
    21    83    82    1
    22    64    65    1
    23    55    60   am
    24    55    54    1
    25    91    92    1
    26    85    86    1
    27    85    88    1
    28    86    87    2
    29    90    88    1
    30    54    53    1
    31    54    57    1
    32    34    33    1
    33    33    32    1
    34    92    95    1
    35    92    93    1
    36    95    96    1
    37    88    89    1
    38    96    97    1
    39    97    98    1
    40    65    66    1
    41    32    29    1
    42    36    37    1
    43    58    57    1
    44    29    30    1
    45    29    28    1
    46    57    59    1
    47    66    67    1
    48    93    94    2
    49    31    30    2
    50    37    38    1
    51    37    40    1
    52    38    39    2
    53   110   109    1
    54    47    46    2
    55   107   109   ar
    56   107   105   ar
    57   109   108   ar
    58    46    45    1
    59   105   104   ar
    60   108   106   ar
    61    41    40    1
    62    41    43    1
    63    40    42    1
    64   104   106   ar
    65   104   103    1
    66    44    45    1
    67   103   100    1
    68    45    48    1
    69    23    22    2
    70    11    10    2
    71    16    14   ar
    72    16    18   ar
    73   100    99    1
    74   100   101    1
    75    14    13   ar
    76    48    49    1
    77    49    50    1
    78    22    21    1
    79    10     9    1
    80    10    20   am
    81    19    18    1
    82     9    12    1
    83     9     8    1
    84    18    17   ar
    85   122   121    1
    86   101   102    2
    87    21    20    1
    88    21    24    1
    89    13    12    1
    90    13    15   ar
    91    52    51    1
    92   121   119   ar
    93   121   120   ar
    94   119   117   ar
    95    50    51    1
    96   120   118   ar
    97    17    15   ar
    98   117   116   ar
    99    25    24    1
   100    25    26    1
   101   118   116   ar
   102   116   115    1
   103   115   112    1
   104    26    27    1
   105   126   125    2
   106   111   112    1
   107   112   113    1
   108     4     3    2
   109   125   124    1
   110     3     2    1
   111   113   114    2
   112   128   127    1
   113     2     1    1
   114     2     5    1
   115   124   127    1
   116   124   123    1
   117     6     5    1
   118     5     7    1
