@<TRIPOS>MOLECULE
tmp/1tukA01.pdb
 77 73 0 0 0
SMALL
GASTEIGER

@<TRIPOS>ATOM
      1  N         21.3140   24.8020    5.6270 N.3     4  ALA4       -0.1231
      2  CA        21.5280   24.0780    6.8710 C.3     4  ALA4        0.1694
      3  C         20.3440   23.3860    7.4540 C.2     4  ALA4        0.2592
      4  O         20.4200   22.3570    8.1360 O.2     4  ALA4       -0.2718
      5  CB        21.9750   25.0640    7.8990 C.3     4  ALA4        0.0304
      6  N         19.2250   23.9830    7.2220 N.am    5  SER5       -0.1952
      7  CA        17.9630   23.4310    7.6650 C.3     5  SER5        0.1924
      8  C         17.6780   21.9880    7.1720 C.2     5  SER5        0.2314
      9  O         16.9820   21.2230    7.8240 O.2     5  SER5       -0.2863
     10  CB        16.8350   24.4110    7.3050 C.3     5  SER5        0.2116
     11  OG        16.5150   24.2700    5.9230 O.3     5  SER5       -0.2180
     12  N         19.6370   19.6720    7.4810 N.3     7  LEU7       -0.1231
     13  CA        20.2530   18.8340    8.4660 C.3     7  LEU7        0.1693
     14  C         19.3610   18.5470    9.6680 C.2     7  LEU7        0.2591
     15  O         19.8110   17.9290   10.6090 O.2     7  LEU7       -0.2718
     16  CB        21.5800   19.4980    8.9400 C.3     7  LEU7        0.0284
     17  CG        22.7650   19.8040    7.9610 C.3     7  LEU7        0.0019
     18  CD1       23.8750   20.6570    8.5040 C.3     7  LEU7        0.0001
     19  CD2       23.3790   18.5670    7.5640 C.3     7  LEU7        0.0001
     20  N         18.1110   18.9930    9.6270 N.am    8  ALA8       -0.1980
     21  CA        17.2280   18.7810   10.7720 C.3     8  ALA8        0.1597
     22  C         17.1270   17.3180   11.1930 C.2     8  ALA8        0.2287
     23  O         17.0330   17.0140   12.3630 O.2     8  ALA8       -0.2864
     24  CB        15.7990   19.3250   10.4860 C.3     8  ALA8        0.0319
     25  N         19.8110   16.6100   13.6330 N.3    11  ALA11      -0.1245
     26  CA        20.0470   17.5960   14.6520 C.3    11  ALA11       0.1562
     27  C         20.4480   16.9990   15.9850 C.2    11  ALA11       0.2260
     28  O         21.2630   17.5770   16.6960 O.2    11  ALA11      -0.2867
     29  CB        18.8060   18.5180   14.8660 C.3    11  ALA11       0.0290
     30  N         24.1790   16.1910   15.6930 N.3    14  ILE14      -0.1231
     31  CA        24.9780   17.4180   15.5650 C.3    14  ILE14       0.1692
     32  C         25.0280   18.2150   16.8370 C.2    14  ILE14       0.2591
     33  O         26.0490   18.7810   17.1770 O.2    14  ILE14      -0.2718
     34  CB        24.4650   18.2410   14.3950 C.3    14  ILE14       0.0266
     35  CG1       24.6980   17.5010   13.0700 C.3    14  ILE14       0.0019
     36  CG2       25.0500   19.6370   14.3760 C.3    14  ILE14       0.0020
     37  CD1       23.9560   18.0840   11.8700 C.3    14  ILE14       0.0001
     38  N         23.9070   18.2950   17.5440 N.am   15  LEU15      -0.1980
     39  CA        23.7760   19.1160   18.7400 C.3    15  LEU15       0.1596
     40  C         24.2380   18.4500   19.9620 C.2    15  LEU15       0.2287
     41  O         24.6810   19.1280   20.8870 O.2    15  LEU15      -0.2864
     42  CB        22.3480   19.6330   18.9410 C.3    15  LEU15       0.0297
     43  CG        21.8500   20.5100   17.7950 C.3    15  LEU15       0.0022
     44  CD1       20.3470   20.7790   17.9390 C.3    15  LEU15       0.0001
     45  CD2       22.6260   21.8100   17.5940 C.3    15  LEU15       0.0001
     46  N         23.8490   28.5030   12.1470 N.3    44  TYR44      -0.1241
     47  CA        24.0920   27.1300   12.6020 C.3    44  TYR44       0.1605
     48  C         25.4890   26.6420   12.4230 C.2    44  TYR44       0.2264
     49  O         25.8320   25.5450   12.8710 O.2    44  TYR44      -0.2867
     50  CB        23.1320   26.1680   11.8590 C.3    44  TYR44       0.0534
     51  CG        21.6720   26.5190   12.0550 C.ar   44  TYR44      -0.0201
     52  CD1       21.1020   26.4540   13.2970 C.ar   44  TYR44      -0.0009
     53  CD2       20.9240   27.0030   11.0010 C.ar   44  TYR44      -0.0009
     54  CE1       19.7510   26.8240   13.4810 C.ar   44  TYR44       0.0417
     55  CE2       19.5880   27.3370   11.1690 C.ar   44  TYR44       0.0417
     56  CZ        19.0260   27.2610   12.4130 C.ar   44  TYR44       0.1957
     57  OH        17.7220   27.6340   12.5460 O.3    44  TYR44      -0.2866
     58  N         27.4910   24.9320   15.2150 N.3    47  TYR47      -0.1227
     59  CA        27.1590   23.5240   15.5190 C.3    47  TYR47       0.1736
     60  C         27.7470   22.6200   14.4590 C.2    47  TYR47       0.2595
     61  O         28.2590   21.5200   14.7360 O.2    47  TYR47      -0.2718
     62  CB        25.6440   23.3430   15.5630 C.3    47  TYR47       0.0548
     63  CG        25.0130   24.3310   16.4770 C.ar   47  TYR47      -0.0200
     64  CD1       25.1980   24.2560   17.8390 C.ar   47  TYR47      -0.0009
     65  CD2       24.2670   25.4010   15.9850 C.ar   47  TYR47      -0.0009
     66  CE1       24.6070   25.1910   18.7170 C.ar   47  TYR47       0.0417
     67  CE2       23.6350   26.3220   16.8520 C.ar   47  TYR47       0.0417
     68  CZ        23.8380   26.2120   18.1930 C.ar   47  TYR47       0.1957
     69  OH        23.2500   27.1120   19.0340 O.3    47  TYR47      -0.2866
     70  N         27.6720   23.0560   13.2250 N.am   48  ILE48      -0.1980
     71  CA        28.1770   22.2870   12.0950 C.3    48  ILE48       0.1595
     72  C         29.6810   22.0770   12.1690 C.2    48  ILE48       0.2287
     73  O         30.1870   21.0720   11.7310 O.2    48  ILE48      -0.2864
     74  CB        27.7580   22.9440   10.7720 C.3    48  ILE48       0.0276
     75  CG1       26.1860   22.9150   10.8960 C.3    48  ILE48       0.0022
     76  CG2       28.0760   22.1340    9.6040 C.3    48  ILE48       0.0022
     77  CD1       25.2810   23.8420   10.0360 C.3    48  ILE48       0.0001
@<TRIPOS>BOND
     1     1     2    1
     2    11    10    1
     3     2     3    1
     4     2     5    1
     5     8     7    1
     6     8     9    2
     7     6     3   am
     8     6     7    1
     9    10     7    1
    10     3     4    2
    11    12    13    1
    12    19    17    1
    13    17    18    1
    14    17    16    1
    15    13    16    1
    16    13    14    1
    17    76    74    1
    18    20    14   am
    19    20    21    1
    20    14    15    2
    21    77    75    1
    22    24    21    1
    23    21    22    1
    24    74    75    1
    25    74    71    1
    26    53    55   ar
    27    53    51   ar
    28    55    56   ar
    29    22    23    2
    30    73    72    2
    31    50    51    1
    32    50    47    1
    33    37    35    1
    34    51    52   ar
    35    71    72    1
    36    71    70    1
    37    46    47    1
    38    56    57    1
    39    56    54   ar
    40    48    47    1
    41    48    49    2
    42    35    34    1
    43    70    60   am
    44    52    54   ar
    45    25    26    1
    46    36    34    1
    47    34    31    1
    48    60    61    2
    49    60    59    1
    50    26    29    1
    51    26    27    1
    52    58    59    1
    53    59    62    1
    54    62    63    1
    55    31    30    1
    56    31    32    1
    57    65    63   ar
    58    65    67   ar
    59    27    28    2
    60    63    64   ar
    61    32    33    2
    62    32    38   am
    63    67    68   ar
    64    38    39    1
    65    45    43    1
    66    43    44    1
    67    43    42    1
    68    64    66   ar
    69    68    66   ar
    70    68    69    1
    71    39    42    1
    72    39    40    1
    73    40    41    2
