@<TRIPOS>MOLECULE
tmp/1tukA00.pdb
 168 162 0 0 0
SMALL
GASTEIGER

@<TRIPOS>ATOM
      1  N         19.6370   19.6720    7.4810 N.3     7  LEU7       -0.1245
      2  CA        20.2530   18.8340    8.4660 C.3     7  LEU7        0.1561
      3  C         19.3610   18.5470    9.6680 C.2     7  LEU7        0.2260
      4  O         19.8110   17.9290   10.6090 O.2     7  LEU7       -0.2867
      5  CB        21.5800   19.4980    8.9400 C.3     7  LEU7        0.0270
      6  CG        22.7650   19.8040    7.9610 C.3     7  LEU7        0.0019
      7  CD1       23.8750   20.6570    8.5040 C.3     7  LEU7        0.0001
      8  CD2       23.3790   18.5670    7.5640 C.3     7  LEU7        0.0001
      9  N         24.1790   16.1910   15.6930 N.3    14  ILE14      -0.1245
     10  CA        24.9780   17.4180   15.5650 C.3    14  ILE14       0.1561
     11  C         25.0280   18.2150   16.8370 C.2    14  ILE14       0.2260
     12  O         26.0490   18.7810   17.1770 O.2    14  ILE14      -0.2867
     13  CB        24.4650   18.2410   14.3950 C.3    14  ILE14       0.0252
     14  CG1       24.6980   17.5010   13.0700 C.3    14  ILE14       0.0019
     15  CG2       25.0500   19.6370   14.3760 C.3    14  ILE14       0.0019
     16  CD1       23.9560   18.0840   11.8700 C.3    14  ILE14       0.0001
     17  N         23.0880   12.7550    5.0990 N.3    28  LEU28      -0.1245
     18  CA        24.4290   13.2890    5.0760 C.3    28  LEU28       0.1561
     19  C         25.1930   12.7860    3.8760 C.2    28  LEU28       0.2260
     20  O         25.9090   13.5630    3.2110 O.2    28  LEU28      -0.2867
     21  CB        25.1560   12.9200    6.3720 C.3    28  LEU28       0.0270
     22  CG        24.6470   13.6900    7.5980 C.3    28  LEU28       0.0019
     23  CD1       25.3110   13.1270    8.8570 C.3    28  LEU28       0.0001
     24  CD2       24.8360   15.1660    7.4990 C.3    28  LEU28       0.0001
     25  N         28.7230   20.3210    2.5810 N.3    35  PHE35      -0.1227
     26  CA        29.1920   20.3970    3.9760 C.3    35  PHE35       0.1736
     27  C         29.9740   21.6720    4.2970 C.2    35  PHE35       0.2595
     28  O         29.7300   22.3180    5.3170 O.2    35  PHE35      -0.2718
     29  CB        30.0860   19.1850    4.3180 C.3    35  PHE35       0.0547
     30  CG        29.3560   17.8920    4.5370 C.ar   35  PHE35      -0.0202
     31  CD1       27.9590   17.7860    4.5490 C.ar   35  PHE35      -0.0042
     32  CD2       30.1140   16.7400    4.7020 C.ar   35  PHE35      -0.0042
     33  CE1       27.3460   16.5690    4.8090 C.ar   35  PHE35      -0.0003
     34  CE2       29.5030   15.5490    4.9360 C.ar   35  PHE35      -0.0003
     35  CZ        28.1480   15.4580    4.9820 C.ar   35  PHE35      -0.0000
     36  N         30.9160   22.0850    3.4450 N.am   36  CYS36      -0.1970
     37  CA        31.7200   23.2750    3.7110 C.3    36  CYS36       0.1712
     38  C         30.8830   24.5320    3.6000 C.2    36  CYS36       0.2296
     39  O         31.1630   25.5090    4.2790 O.2    36  CYS36      -0.2864
     40  CB        33.0280   23.3480    2.9060 C.3    36  CYS36       0.0983
     41  SG        34.1700   21.9980    3.2710 S.3    36  CYS36      -0.0798
     42  N         27.4980   24.5000    4.5210 N.3    38  TYR38      -0.1227
     43  CA        26.8220   24.4380    5.8090 C.3    38  TYR38       0.1736
     44  C         27.6600   24.9890    6.9330 C.2    38  TYR38       0.2595
     45  O         27.1740   25.6970    7.8460 O.2    38  TYR38      -0.2718
     46  CB        26.4780   23.0200    6.1840 C.3    38  TYR38       0.0548
     47  CG        25.4770   22.2590    5.3200 C.ar   38  TYR38      -0.0200
     48  CD1       24.4280   22.8590    4.6090 C.ar   38  TYR38      -0.0009
     49  CD2       25.5870   20.8830    5.2070 C.ar   38  TYR38      -0.0009
     50  CE1       23.5550   22.1000    3.8470 C.ar   38  TYR38       0.0417
     51  CE2       24.6660   20.1270    4.5050 C.ar   38  TYR38       0.0417
     52  CZ        23.6880   20.7530    3.7900 C.ar   38  TYR38       0.1957
     53  OH        22.7760   19.9590    3.1170 O.3    38  TYR38      -0.2866
     54  N         28.9550   24.7370    6.8550 N.am   39  ALA39      -0.1966
     55  CA        29.8710   25.1970    7.9210 C.3    39  ALA39       0.1728
     56  C         30.0130   26.7110    7.9750 C.2    39  ALA39       0.2616
     57  O         30.4860   27.2310    8.9500 O.2    39  ALA39      -0.2715
     58  CB        31.2100   24.5350    7.7660 C.3    39  ALA39       0.0334
     59  N         29.6730   27.3950    6.9170 N.am   40  LYS40      -0.1963
     60  CA        29.6870   28.8550    6.8530 C.3    40  LYS40       0.1728
     61  C         28.3590   29.4860    7.2200 C.2    40  LYS40       0.2616
     62  O         28.2460   30.6990    7.2190 O.2    40  LYS40      -0.2715
     63  CB        30.0670   29.3120    5.4270 C.3    40  LYS40       0.0311
     64  CG        31.4930   28.9320    4.9880 C.3    40  LYS40       0.0038
     65  CD        31.8530   29.3800    3.5530 C.3    40  LYS40       0.0206
     66  CE        31.8760   30.8910    3.3290 C.3    40  LYS40       0.1093
     67  NZ        31.6020   31.3750    1.9230 N.3    40  LYS40      -0.1314
     68  N         27.3230   28.7000    7.5060 N.am   41  ASP41      -0.1958
     69  CA        26.0650   29.2930    7.8360 C.3    41  ASP41       0.1825
     70  C         26.2470   30.1540    9.0870 C.2    41  ASP41       0.2464
     71  O         26.6930   29.6470   10.1090 O.2    41  ASP41      -0.2730
     72  CB        25.0130   28.2020    8.0790 C.3    41  ASP41       0.1450
     73  CG        23.6810   28.8310    8.1970 C.2    41  ASP41       0.3671
     74  OD1       22.9980   28.6180    9.1840 O.co2  41  ASP41      -0.2456
     75  OD2       23.3110   29.6740    7.3440 O.co2  41  ASP41      -0.2456
     76  N         25.8160   31.4290    9.0730 N.am   42  PRO42      -0.2715
     77  CA        25.9760   32.2510   10.2640 C.3    42  PRO42       0.1536
     78  C         25.2090   31.7950   11.4440 C.2    42  PRO42       0.2599
     79  O         25.6290   31.9520   12.5680 O.2    42  PRO42      -0.2715
     80  CB        25.5380   33.6590    9.7990 C.3    42  PRO42       0.0310
     81  CG        25.7350   33.6550    8.3560 C.3    42  PRO42       0.0237
     82  CD        25.4570   32.2850    7.9290 C.3    42  PRO42       0.0939
     83  N         24.0320   31.2320   11.2250 N.am   43  THR43      -0.1951
     84  CA        23.1770   30.8350   12.3700 C.3    43  THR43       0.1897
     85  C         23.5930   29.4930   12.9900 C.2    43  THR43       0.2313
     86  O         23.6520   29.3560   14.1930 O.2    43  THR43      -0.2863
     87  CB        21.6990   30.7580   11.8810 C.3    43  THR43       0.1794
     88  OG1       21.3180   32.0520   11.3470 O.3    43  THR43      -0.2208
     89  CG2       20.7610   30.4430   13.0840 C.3    43  THR43       0.0378
     90  N         28.2150   27.2840   13.8900 N.3    46  GLN46      -0.1245
     91  CA        28.8970   26.9340   15.1440 C.3    46  GLN46       0.1566
     92  C         28.6760   25.4530   15.5170 C.2    46  GLN46       0.2260
     93  O         29.5680   24.7790   16.0200 O.2    46  GLN46      -0.2867
     94  CB        28.4270   27.8040   16.3040 C.3    46  GLN46       0.0367
     95  CG        26.9600   27.6720   16.6370 C.3    46  GLN46       0.0905
     96  CD        26.4970   28.8470   17.4480 C.2    46  GLN46       0.2608
     97  OE1       26.2670   29.9420   16.9020 O.2    46  GLN46      -0.2717
     98  NE2       26.3310   28.6510   18.7300 N.am   46  GLN46      -0.0878
     99  N         27.6720   23.0560   13.2250 N.3    48  ILE48      -0.1231
    100  CA        28.1770   22.2870   12.0950 C.3    48  ILE48       0.1692
    101  C         29.6810   22.0770   12.1690 C.2    48  ILE48       0.2591
    102  O         30.1870   21.0720   11.7310 O.2    48  ILE48      -0.2718
    103  CB        27.7580   22.9440   10.7720 C.3    48  ILE48       0.0266
    104  CG1       26.1860   22.9150   10.8960 C.3    48  ILE48       0.0019
    105  CG2       28.0760   22.1340    9.6040 C.3    48  ILE48       0.0020
    106  CD1       25.2810   23.8420   10.0360 C.3    48  ILE48       0.0001
    107  N         30.3880   23.0550   12.7300 N.am   49  ARG49      -0.1980
    108  CA        31.8320   23.0090   12.8770 C.3    49  ARG49       0.1597
    109  C         32.2950   22.2680   14.1260 C.2    49  ARG49       0.2287
    110  O         33.5090   22.0850   14.2940 O.2    49  ARG49      -0.2864
    111  CB        32.4240   24.4040   12.8500 C.3    49  ARG49       0.0334
    112  CG        32.2020   25.1370   11.5160 C.3    49  ARG49       0.0492
    113  CD        32.9150   26.4080   11.3730 C.3    49  ARG49       0.2205
    114  NE        32.5630   27.3200   12.4400 N.pl3  49  ARG49      -0.0865
    115  CZ        31.6080   28.2570   12.4050 C.cat  49  ARG49       0.5346
    116  NH1       30.8670   28.4580   11.3210 N.pl3  49  ARG49       0.1354
    117  NH2       31.4200   29.0500   13.4460 N.pl3  49  ARG49       0.1354
    118  N         29.4690   17.3640   15.3910 N.3    53  ALA53      -0.1231
    119  CA        29.1760   17.2370   13.9530 C.3    53  ALA53       0.1694
    120  C         30.2180   16.3850   13.2630 C.2    53  ALA53       0.2591
    121  O         29.8840   15.5300   12.4480 O.2    53  ALA53      -0.2718
    122  CB        29.1150   18.6000   13.3220 C.3    53  ALA53       0.0304
    123  N         31.4740   16.6130   13.5690 N.am   54  ARG54      -0.1980
    124  CA        32.5570   15.7710   13.0270 C.3    54  ARG54       0.1597
    125  C         32.3890   14.3100   13.4230 C.2    54  ARG54       0.2287
    126  O         32.5620   13.4150   12.5690 O.2    54  ARG54      -0.2864
    127  CB        33.8750   16.3670   13.5370 C.3    54  ARG54       0.0334
    128  CG        34.1570   17.7130   12.8730 C.3    54  ARG54       0.0492
    129  CD        35.3670   18.4050   13.4140 C.3    54  ARG54       0.2205
    130  NE        35.3710   19.8360   13.1460 N.pl3  54  ARG54      -0.0865
    131  CZ        35.5990   20.7790   14.0570 C.cat  54  ARG54       0.5346
    132  NH1       35.6060   22.0490   13.6750 N.pl3  54  ARG54       0.1354
    133  NH2       35.8090   20.4800   15.3410 N.pl3  54  ARG54       0.1354
    134  N         29.6840   12.8150   14.0660 N.3    56  THR56      -0.1203
    135  CA        28.5150   12.3320   13.3670 C.3    56  THR56       0.1994
    136  C         28.9710   11.8300   11.9800 C.2    56  THR56       0.2617
    137  O         28.5660   10.7400   11.5480 O.2    56  THR56      -0.2717
    138  CB        27.4760   13.4260   13.2380 C.3    56  THR56       0.1784
    139  OG1       27.0260   13.7840   14.5520 O.3    56  THR56      -0.2211
    140  CG2       26.2570   12.9630   12.4810 C.3    56  THR56       0.0376
    141  N         29.7640   12.6270   11.2500 N.am   57  LEU57      -0.1979
    142  CA        30.2760   12.1610    9.9680 C.3    57  LEU57       0.1596
    143  C         30.9810   10.8360   10.1350 C.2    57  LEU57       0.2287
    144  O         30.7660    9.9040    9.3430 O.2    57  LEU57      -0.2864
    145  CB        31.1790   13.2310    9.3870 C.3    57  LEU57       0.0297
    146  CG        30.5470   14.5460    9.0180 C.3    57  LEU57       0.0022
    147  CD1       31.5310   15.3910    8.2410 C.3    57  LEU57       0.0001
    148  CD2       29.2610   14.3930    8.2570 C.3    57  LEU57       0.0001
    149  N         35.5250   13.4620    6.7780 N.3    64  VAL64      -0.1231
    150  CA        35.4280   14.7960    7.3060 C.3    64  VAL64       0.1678
    151  C         36.2160   15.7260    6.3660 C.2    64  VAL64       0.2434
    152  O         37.4240   15.5360    6.1440 O.2    64  VAL64      -0.2733
    153  CB        36.0120   14.8940    8.7090 C.3    64  VAL64       0.0265
    154  CG1       36.0150   16.2750    9.1930 C.3    64  VAL64       0.0020
    155  CG2       35.2500   13.9430    9.6640 C.3    64  VAL64       0.0020
    156  N         35.5680   16.7140    5.7820 N.am   65  PRO65      -0.2729
    157  CA        36.2440   17.5980    4.8610 C.3    65  PRO65       0.1401
    158  C         37.2040   18.5220    5.5560 C.2    65  PRO65       0.2269
    159  O         36.9640   18.9060    6.7030 O.2    65  PRO65      -0.2865
    160  CB        35.1200   18.3660    4.1720 C.3    65  PRO65       0.0296
    161  CG        34.0420   18.3410    5.1250 C.3    65  PRO65       0.0237
    162  CD        34.1510   17.0630    5.9190 C.3    65  PRO65       0.0939
    163  N         37.7230   21.9480    5.0910 N.3    67  CYS67      -0.1235
    164  CA        37.1050   23.1780    4.5850 C.3    67  CYS67       0.1677
    165  C         38.0280   24.3830    4.6640 C.2    67  CYS67       0.2270
    166  O         39.1640   24.3010    5.1840 O.2    67  CYS67      -0.2867
    167  CB        35.8230   23.4890    5.3690 C.3    67  CYS67       0.0956
    168  SG        34.5590   22.1980    5.2590 S.3    67  CYS67      -0.0801
@<TRIPOS>BOND
     1    67    66    1
     2    25    26    1
     3    40    41    1
     4    40    37    1
     5    53    52    1
     6    20    19    2
     7    41   168    1
     8    66    65    1
     9    36    37    1
    10    36    27   am
    11    65    64    1
    12    38    37    1
    13    38    39    2
    14    52    50   ar
    15    52    51   ar
    16    50    48   ar
    17    19    18    1
    18    26    27    1
    19    26    29    1
    20   160   157    1
    21   160   161    1
    22    27    28    2
    23    29    30    1
    24    51    49   ar
    25    42    43    1
    26    30    31   ar
    27    30    32   ar
    28    31    33   ar
    29   164   165    1
    30   164   163    1
    31   164   167    1
    32    48    47   ar
    33   165   166    2
    34    32    34   ar
    35    33    35   ar
    36   157   158    1
    37   157   156    1
    38    34    35   ar
    39    64    63    1
    40    18    17    1
    41    18    21    1
    42   161   162    1
    43    49    47   ar
    44   168   167    1
    45    47    46    1
    46    63    60    1
    47   158   159    2
    48   156   162    1
    49   156   151   am
    50    43    46    1
    51    43    44    1
    52   152   151    2
    53   151   150    1
    54    21    22    1
    55   149   150    1
    56    60    59    1
    57    60    61    1
    58    54    44   am
    59    54    55    1
    60    59    56   am
    61    44    45    2
    62    62    61    2
    63    61    68   am
    64   150   153    1
    65    75    73   ar
    66     1     2    1
    67    24    22    1
    68    68    69    1
    69     8     6    1
    70    22    23    1
    71    58    55    1
    72    69    72    1
    73    69    70    1
    74    55    56    1
    75    82    81    1
    76    82    76    1
    77     6     7    1
    78     6     5    1
    79    56    57    2
    80    72    73    1
    81    73    74   ar
    82   147   146    1
    83   148   146    1
    84    81    80    1
    85     2     5    1
    86     2     3    1
    87   153   154    1
    88   153   155    1
    89   146   145    1
    90    76    70   am
    91    76    77    1
    92    70    71    2
    93   144   143    2
    94   145   142    1
    95   105   103    1
    96     3     4    2
    97    80    77    1
    98   142   143    1
    99   142   141    1
   100   106   104    1
   101    77    78    1
   102   103   104    1
   103   103   100    1
   104    83    78   am
   105    83    84    1
   106   141   136   am
   107   116   115    1
   108    88    87    1
   109   113   112    1
   110   113   114    1
   111    78    79    2
   112   112   111    1
   113   137   136    2
   114   102   101    2
   115    16    14    1
   116    87    84    1
   117    87    89    1
   118   136   135    1
   119   100   101    1
   120   100    99    1
   121   101   107   am
   122    84    85    1
   123   115   114    2
   124   115   117    1
   125   121   120    2
   126   140   138    1
   127   126   125    2
   128   107   108    1
   129   111   108    1
   130   128   129    1
   131   128   127    1
   132   108   109    1
   133    85    86    2
   134   124   125    1
   135   124   127    1
   136   124   123    1
   137    14    13    1
   138   130   129    1
   139   130   131    2
   140   138   135    1
   141   138   139    1
   142   120   123   am
   143   120   119    1
   144   122   119    1
   145   135   134    1
   146   132   131    1
   147    90    91    1
   148   119   118    1
   149   131   133    1
   150   109   110    2
   151    15    13    1
   152    13    10    1
   153    91    92    1
   154    91    94    1
   155    92    93    2
   156    10     9    1
   157    10    11    1
   158    94    95    1
   159    95    96    1
   160    11    12    2
   161    97    96    2
   162    96    98   am
