@<TRIPOS>MOLECULE
tmp/1tumA00.pdb
 149 136 0 0 0
SMALL
GASTEIGER

@<TRIPOS>ATOM
      1  N         15.1250   14.7210    5.6380 N.3     2  LYS2       -0.1245
      2  CA        15.3230   13.2500    5.5000 C.3     2  LYS2        0.1561
      3  C         14.3960   12.7120    4.4160 C.2     2  LYS2        0.2260
      4  O         13.5240   13.4040    3.9310 O.2     2  LYS2       -0.2867
      5  CB        15.0470   12.5600    6.8550 C.3     2  LYS2        0.0271
      6  CG        13.8070   11.6440    6.8150 C.3     2  LYS2        0.0035
      7  CD        12.5340   12.4620    6.5720 C.3     2  LYS2        0.0206
      8  CE        11.4530   11.5530    5.9870 C.3     2  LYS2        0.1093
      9  NZ        10.8620   10.7230    7.0750 N.3     2  LYS2       -0.1314
     10  N         12.2730    8.9350    2.8930 N.3     4  LEU4       -0.1245
     11  CA        11.9520    7.5040    3.1350 C.3     4  LEU4        0.1561
     12  C         10.9030    7.0530    2.1150 C.2     4  LEU4        0.2260
     13  O         10.1010    7.8360    1.6450 O.2     4  LEU4       -0.2867
     14  CB        11.4640    7.3290    4.5980 C.3     4  LEU4        0.0270
     15  CG         9.9650    7.0080    4.7070 C.3     4  LEU4        0.0019
     16  CD1        9.1280    8.0520    3.9790 C.3     4  LEU4        0.0001
     17  CD2        9.6850    5.6130    4.1440 C.3     4  LEU4        0.0001
     18  N          7.9470    3.9150    0.8490 N.3     6  ILE6       -0.1245
     19  CA         7.1030    2.8460    1.4240 C.3     6  ILE6        0.1561
     20  C          6.8050    1.8070    0.3480 C.2     6  ILE6        0.2260
     21  O          6.1460    2.0820   -0.6340 O.2     6  ILE6       -0.2867
     22  CB         5.8130    3.4690    1.9630 C.3     6  ILE6        0.0252
     23  CG1        6.0940    3.9940    3.3800 C.3     6  ILE6        0.0019
     24  CG2        4.6890    2.4290    1.9920 C.3     6  ILE6        0.0019
     25  CD1        4.9190    3.6970    4.3310 C.3     6  ILE6        0.0001
     26  N          5.0210   -0.6470    4.2720 N.3    38  GLY38      -0.1210
     27  CA         6.0120   -1.7580    4.3240 C.3    38  GLY38       0.1956
     28  C          7.4220   -1.1700    4.3690 C.2    38  GLY38       0.2611
     29  O          8.3260   -1.7610    4.9210 O.2    38  GLY38      -0.2717
     30  N          7.6020   -0.0050    3.7970 N.am   39  LYS39      -0.1979
     31  CA         8.9420    0.6560    3.7980 C.3    39  LYS39       0.1596
     32  C          9.9230   -0.0910    2.8970 C.2    39  LYS39       0.2287
     33  O         10.4730   -1.1040    3.2720 O.2    39  LYS39      -0.2864
     34  CB         9.5060    0.6910    5.2150 C.3    39  LYS39       0.0298
     35  CG        10.9270    1.2490    5.1660 C.3    39  LYS39       0.0038
     36  CD        10.8780    2.7390    4.8280 C.3    39  LYS39       0.0206
     37  CE        11.9400    3.0550    3.7730 C.3    39  LYS39       0.1093
     38  NZ        12.9770    3.9510    4.3590 N.3    39  LYS39      -0.1314
     39  N         13.4450   -0.8040    1.3580 N.3    41  GLU41      -0.1245
     40  CA        14.8410   -0.4740    1.7500 C.3    41  GLU41       0.1567
     41  C         15.7210   -1.7230    1.6310 C.2    41  GLU41       0.2260
     42  O         16.8940   -1.6410    1.3270 O.2    41  GLU41      -0.2867
     43  CB        14.8490    0.0420    3.1910 C.3    41  GLU41       0.0388
     44  CG        14.7210   -1.1320    4.1650 C.3    41  GLU41       0.1160
     45  CD        14.7430   -0.6080    5.6020 C.2    41  GLU41       0.3649
     46  OE1       15.6140    0.1880    5.9080 O.co2  41  GLU41      -0.2457
     47  OE2       13.8870   -1.0120    6.3710 O.co2  41  GLU41      -0.2457
     48  N          9.9330   -7.0700    1.7280 N.3    53  GLU53      -0.1245
     49  CA         9.0540   -6.3860    2.7090 C.3    53  GLU53       0.1567
     50  C          7.6890   -7.0470    2.6240 C.2    53  GLU53       0.2260
     51  O          6.8290   -6.8400    3.4460 O.2    53  GLU53      -0.2867
     52  CB         8.9170   -4.9100    2.3540 C.3    53  GLU53       0.0388
     53  CG        10.2800   -4.2420    2.4630 C.3    53  GLU53       0.1160
     54  CD        10.4320   -3.6060    3.8430 C.2    53  GLU53       0.3649
     55  OE1        9.5080   -3.7240    4.6300 O.co2  53  GLU53      -0.2457
     56  OE2       11.4730   -3.0210    4.0950 O.co2  53  GLU53      -0.2457
     57  N          8.2790  -10.6190    4.7710 N.3    56  GLU56      -0.1231
     58  CA         8.5570  -10.2910    6.1990 C.3    56  GLU56       0.1699
     59  C          7.2760   -9.8860    6.9450 C.2    56  GLU56       0.2592
     60  O          7.2030  -10.0060    8.1530 O.2    56  GLU56      -0.2718
     61  CB         9.5890   -9.1610    6.2760 C.3    56  GLU56       0.0402
     62  CG         9.1790   -8.0030    5.3740 C.3    56  GLU56       0.1161
     63  CD         8.3910   -6.9700    6.1860 C.2    56  GLU56       0.3649
     64  OE1        7.7310   -7.3680    7.1310 O.co2  56  GLU56      -0.2457
     65  OE2        8.4600   -5.7960    5.8490 O.co2  56  GLU56      -0.2457
     66  N          6.2670   -9.4040    6.2650 N.am   57  GLU57      -0.1979
     67  CA         5.0240   -9.0030    6.9950 C.3    57  GLU57       0.1602
     68  C          4.1610  -10.2350    7.3090 C.2    57  GLU57       0.2287
     69  O          4.2090  -10.7720    8.3970 O.2    57  GLU57      -0.2864
     70  CB         4.2140   -7.9950    6.1650 C.3    57  GLU57       0.0415
     71  CG         5.1560   -7.1480    5.3180 C.3    57  GLU57       0.1163
     72  CD         4.7930   -5.6690    5.4630 C.2    57  GLU57       0.3649
     73  OE1        3.6160   -5.3790    5.5970 O.co2  57  GLU57      -0.2457
     74  OE2        5.6990   -4.8510    5.4350 O.co2  57  GLU57      -0.2457
     75  N          3.9280    7.5930   -5.8290 N.3    71  LEU71      -0.1245
     76  CA         3.8140    9.0560   -5.5830 C.3    71  LEU71       0.1561
     77  C          4.9850    9.5400   -4.7310 C.2    71  LEU71       0.2260
     78  O          5.8670    8.7870   -4.3670 O.2    71  LEU71      -0.2867
     79  CB         2.4960    9.3710   -4.8570 C.3    71  LEU71       0.0270
     80  CG         2.2990    8.4320   -3.6580 C.3    71  LEU71       0.0019
     81  CD1        3.4270    8.6270   -2.6410 C.3    71  LEU71       0.0001
     82  CD2        0.9600    8.7500   -2.9820 C.3    71  LEU71       0.0001
     83  N          4.9040   12.3850   -1.6790 N.3    73  TYR73      -0.1241
     84  CA         4.3050   13.5230   -0.9420 C.3    73  TYR73       0.1605
     85  C          5.4260   14.2830   -0.2470 C.2    73  TYR73       0.2264
     86  O          6.2280   13.7100    0.4630 O.2    73  TYR73      -0.2867
     87  CB         3.3120   12.9910    0.0980 C.3    73  TYR73       0.0534
     88  CG         2.0330   13.8020    0.0870 C.ar   73  TYR73      -0.0201
     89  CD1        1.9970   15.0870   -0.4790 C.ar   73  TYR73      -0.0009
     90  CD2        0.8720   13.2570    0.6480 C.ar   73  TYR73      -0.0009
     91  CE1        0.8010   15.8160   -0.4800 C.ar   73  TYR73       0.0417
     92  CE2       -0.3200   13.9870    0.6470 C.ar   73  TYR73       0.0417
     93  CZ        -0.3560   15.2660    0.0840 C.ar   73  TYR73       0.1957
     94  OH        -1.5340   15.9850    0.0820 O.3    73  TYR73      -0.2866
     95  N          6.7450   16.9870    2.5160 N.3    75  PHE75      -0.1241
     96  CA         6.2660   17.6710    3.7470 C.3    75  PHE75       0.1605
     97  C          7.2810   18.7520    4.1400 C.2    75  PHE75       0.2264
     98  O          8.3520   18.8200    3.5710 O.2    75  PHE75      -0.2867
     99  CB         6.1330   16.6320    4.8660 C.3    75  PHE75       0.0534
    100  CG         4.6860   16.2060    4.9900 C.ar   75  PHE75      -0.0203
    101  CD1        3.6670   17.1670    4.9590 C.ar   75  PHE75      -0.0042
    102  CD2        4.3640   14.8500    5.1300 C.ar   75  PHE75      -0.0042
    103  CE1        2.3280   16.7720    5.0690 C.ar   75  PHE75      -0.0003
    104  CE2        3.0240   14.4550    5.2390 C.ar   75  PHE75      -0.0003
    105  CZ         2.0070   15.4170    5.2090 C.ar   75  PHE75      -0.0000
    106  N          9.6850   16.4420    5.8060 N.3    78  ARG78      -0.1245
    107  CA         9.5010   14.9770    5.6480 C.3    78  ARG78       0.1563
    108  C          9.3530   14.6160    4.1660 C.2    78  ARG78       0.2260
    109  O          8.2650   14.6180    3.6250 O.2    78  ARG78      -0.2867
    110  CB         8.2350   14.5570    6.3960 C.3    78  ARG78       0.0307
    111  CG         8.6040   13.6280    7.5520 C.3    78  ARG78       0.0489
    112  CD         9.3300   14.4290    8.6360 C.3    78  ARG78       0.2205
    113  NE         8.5790   14.3400    9.9230 N.pl3  78  ARG78      -0.0865
    114  CZ         7.2740   14.3300    9.9230 C.cat  78  ARG78       0.5346
    115  NH1        6.6140   15.1400    9.1400 N.pl3  78  ARG78       0.1354
    116  NH2        6.6290   13.5070   10.7040 N.pl3  78  ARG78       0.1354
    117  N          8.6570   12.1360    1.9320 N.3    80  ILE80      -0.1245
    118  CA         8.2070   10.7140    1.9250 C.3    80  ILE80       0.1561
    119  C          7.9670   10.2140    0.4960 C.2    80  ILE80       0.2260
    120  O          7.8120   10.9770   -0.4380 O.2    80  ILE80      -0.2867
    121  CB         6.8950   10.5870    2.7200 C.3    80  ILE80       0.0252
    122  CG1        7.1340   10.7530    4.2340 C.3    80  ILE80       0.0019
    123  CG2        6.2930    9.2050    2.4670 C.3    80  ILE80       0.0019
    124  CD1        8.3870   11.5910    4.5080 C.3    80  ILE80       0.0001
    125  N          6.1340    6.5380   -1.7480 N.3    82  LEU82      -0.1245
    126  CA         5.2210    5.3890   -1.5020 C.3    82  LEU82       0.1561
    127  C          5.1080    4.5150   -2.7510 C.2    82  LEU82       0.2260
    128  O          4.1990    4.6600   -3.5420 O.2    82  LEU82      -0.2867
    129  CB         3.8400    5.9200   -1.1190 C.3    82  LEU82       0.0270
    130  CG         3.2310    5.0250   -0.0400 C.3    82  LEU82       0.0019
    131  CD1        3.1550    5.7970    1.2790 C.3    82  LEU82       0.0001
    132  CD2        1.8230    4.6020   -0.4650 C.3    82  LEU82       0.0001
    133  N          1.1170   -2.7870    6.6350 N.3    98  GLU98      -0.1245
    134  CA         2.2370   -2.5640    7.5880 C.3    98  GLU98       0.1567
    135  C          1.6780   -2.7130    9.0060 C.2    98  GLU98       0.2260
    136  O          1.2720   -3.7870    9.4030 O.2    98  GLU98      -0.2867
    137  CB         2.8220   -1.1690    7.3770 C.3    98  GLU98       0.0388
    138  CG         4.0610   -0.9810    8.2670 C.3    98  GLU98       0.1160
    139  CD         4.9130   -2.2570    8.2630 C.2    98  GLU98       0.3649
    140  OE1        5.5360   -2.5320    7.2490 O.co2  98  GLU98      -0.2457
    141  OE2        4.9290   -2.9370    9.2760 O.co2  98  GLU98      -0.2457
    142  N         -3.2940   10.4930   -0.0880 N.3   119  ASN119     -0.1240
    143  CA        -2.5690    9.8170   -1.2000 C.3   119  ASN119      0.1653
    144  C         -3.2310   10.1940   -2.5230 C.2   119  ASN119      0.2266
    145  O         -3.4780    9.3620   -3.3610 O.2   119  ASN119     -0.2867
    146  CB        -2.6470    8.3030   -1.0090 C.3   119  ASN119      0.1155
    147  CG        -1.6480    7.8730    0.0650 C.2   119  ASN119      0.2627
    148  OD1       -1.9830    7.8080    1.2310 O.2   119  ASN119     -0.2716
    149  ND2       -0.4270    7.5750   -0.2800 N.am  119  ASN119     -0.0877
@<TRIPOS>BOND
     1    75    76    1
     2    76    79    1
     3    76    77    1
     4    79    80    1
     5    77    78    2
     6    80    82    1
     7    80    81    1
     8   128   127    2
     9   145   144    2
    10   127   126    1
    11   144   143    1
    12   125   126    1
    13    83    84    1
    14   126   129    1
    15   143   146    1
    16   143   142    1
    17   129   130    1
    18   146   147    1
    19    84    85    1
    20    84    87    1
    21    21    20    2
    22    91    89   ar
    23    91    93   ar
    24    89    88   ar
    25   132   130    1
    26   120   119    2
    27   149   147   am
    28    85    86    2
    29   130   131    1
    30   147   148    2
    31    94    93    1
    32    93    92   ar
    33    88    87    1
    34    88    90   ar
    35    20    19    1
    36   119   118    1
    37    92    90   ar
    38    18    19    1
    39    42    41    2
    40    39    40    1
    41    19    22    1
    42    41    40    1
    43    13    12    2
    44    48    49    1
    45    40    43    1
    46   118   117    1
    47   118   121    1
    48    22    24    1
    49    22    23    1
    50    12    11    1
    51    52    53    1
    52    52    49    1
    53    53    54    1
    54   123   121    1
    55    95    96    1
    56    50    49    1
    57    50    51    2
    58   121   122    1
    59    10    11    1
    60    32    33    2
    61    32    31    1
    62    11    14    1
    63    43    44    1
    64    23    25    1
    65    98    97    2
    66   109   108    2
    67    96    97    1
    68    96    99    1
    69    37    38    1
    70    37    36    1
    71    30    31    1
    72    30    28   am
    73    31    34    1
    74    54    56   ar
    75    54    55   ar
    76     4     3    2
    77    16    15    1
    78    17    15    1
    79    44    45    1
    80   108   107    1
    81   122   124    1
    82    26    27    1
    83    27    28    1
    84    28    29    2
    85     3     2    1
    86    14    15    1
    87    57    58    1
    88    36    35    1
    89    99   100    1
    90   101   100   ar
    91   101   103   ar
    92   100   102   ar
    93   103   105   ar
    94   102   104   ar
    95    35    34    1
    96   105   104   ar
    97    71    72    1
    98    71    70    1
    99    62    63    1
   100    62    61    1
   101    74    72   ar
   102    72    73   ar
   103     2     1    1
   104     2     5    1
   105    45    46   ar
   106    45    47   ar
   107   107   106    1
   108   107   110    1
   109    65    63   ar
   110     8     7    1
   111     8     9    1
   112    70    67    1
   113    63    64   ar
   114    58    61    1
   115    58    59    1
   116    66    59   am
   117    66    67    1
   118   110   111    1
   119     7     6    1
   120   133   134    1
   121     6     5    1
   122    59    60    2
   123    67    68    1
   124   140   139   ar
   125    68    69    2
   126   137   134    1
   127   137   138    1
   128   111   112    1
   129   134   135    1
   130   139   138    1
   131   139   141   ar
   132   112   113    1
   133   135   136    2
   134   115   114    1
   135   114   113    2
   136   114   116    1
