@<TRIPOS>MOLECULE
tmp/1tuuB00.pdb
 118 112 0 0 0
SMALL
GASTEIGER

@<TRIPOS>ATOM
      1  N         68.9360    4.4000   12.0100 N.3   208  HIS208     -0.1241
      2  CA        69.8750    5.1200   12.8660 C.3   208  HIS208      0.1621
      3  C         69.9050    4.3850   14.2080 C.2   208  HIS208      0.2264
      4  O         68.9970    4.5310   15.0330 O.2   208  HIS208     -0.2867
      5  CB        69.3980    6.5620   13.0710 C.3   208  HIS208      0.0745
      6  CG        70.3010    7.3790   13.9400 C.ar  208  HIS208      0.0817
      7  ND1       71.3010    8.1870   13.4370 N.ar  208  HIS208     -0.2268
      8  CD2       70.3710    7.4910   15.2860 C.ar  208  HIS208      0.1154
      9  CE1       71.9450    8.7600   14.4390 C.ar  208  HIS208      0.1986
     10  NE2       71.4010    8.3520   15.5710 N.ar  208  HIS208     -0.2212
     11  N         71.8270    3.9720   17.6180 N.3   210  GLY210     -0.1210
     12  CA        72.7750    4.4960   18.5850 C.3   210  GLY210      0.1956
     13  C         72.2050    4.4160   19.9900 C.2   210  GLY210      0.2611
     14  O         71.3310    3.5840   20.2370 O.2   210  GLY210     -0.2717
     15  N         72.6710    5.2560   20.9170 N.am  211  ASN211     -0.1974
     16  CA        72.1250    5.1990   22.2750 C.3   211  ASN211      0.1688
     17  C         70.6280    5.3520   22.1550 C.2   211  ASN211      0.2292
     18  O         69.8650    4.7650   22.9270 O.2   211  ASN211     -0.2864
     19  CB        72.6610    6.3140   23.1760 C.3   211  ASN211      0.1181
     20  CG        72.1700    6.1660   24.6170 C.2   211  ASN211      0.2629
     21  OD1       72.4250    5.1450   25.2540 O.2   211  ASN211     -0.2716
     22  ND2       71.4610    7.1690   25.1290 N.am  211  ASN211     -0.0877
     23  N         73.8650    0.2360   29.3970 N.3   282  ASN282     -0.1225
     24  CA        73.0850    0.8040   28.3090 C.3   282  ASN282      0.1785
     25  C         73.9840    0.7690   27.0830 C.2   282  ASN282      0.2597
     26  O         73.5800    1.1580   25.9920 O.2   282  ASN282     -0.2718
     27  CB        72.7130    2.2550   28.5980 C.3   282  ASN282      0.1169
     28  CG        73.8800    3.1940   28.4000 C.2   282  ASN282      0.2627
     29  OD1       74.9150    3.0490   29.0460 O.2   282  ASN282     -0.2716
     30  ND2       73.7290    4.1510   27.5040 N.am  282  ASN282     -0.0877
     31  N         75.2170    0.3150   27.2800 N.am  283  ASP283     -0.1960
     32  CA        76.1800    0.2360   26.1860 C.3   283  ASP283      0.1840
     33  C         76.0780   -1.1050   25.4670 C.2   283  ASP283      0.2622
     34  O         76.2970   -2.1510   26.0660 O.2   283  ASP283     -0.2715
     35  CB        77.5940    0.4360   26.7160 C.3   283  ASP283      0.1450
     36  CG        78.6310    0.4620   25.6050 C.2   283  ASP283      0.3671
     37  OD1       78.9530   -0.6140   25.0620 O.co2 283  ASP283     -0.2456
     38  OD2       79.1170    1.5680   25.2710 O.co2 283  ASP283     -0.2456
     39  N         75.7440   -1.0720   24.1820 N.am  284  PHE284     -0.1960
     40  CA        75.5950   -2.2990   23.4100 C.3   284  PHE284      0.1771
     41  C         76.8850   -3.0740   23.2410 C.2   284  PHE284      0.2619
     42  O         76.8870   -4.2950   23.3410 O.2   284  PHE284     -0.2715
     43  CB        74.9910   -2.0020   22.0330 C.3   284  PHE284      0.0574
     44  CG        73.5510   -1.5870   22.0880 C.ar  284  PHE284     -0.0200
     45  CD1       73.1940   -0.3630   22.6460 C.ar  284  PHE284     -0.0042
     46  CD2       72.5530   -2.4270   21.6160 C.ar  284  PHE284     -0.0042
     47  CE1       71.8640    0.0210   22.7360 C.ar  284  PHE284     -0.0003
     48  CE2       71.2130   -2.0550   21.6990 C.ar  284  PHE284     -0.0003
     49  CZ        70.8660   -0.8250   22.2620 C.ar  284  PHE284     -0.0000
     50  N         77.9850   -2.3740   22.9870 N.am  285  ARG285     -0.1977
     51  CA        79.2590   -3.0570   22.8260 C.3   285  ARG285      0.1597
     52  C         79.5560   -3.9210   24.0590 C.2   285  ARG285      0.2287
     53  O         79.9900   -5.0640   23.9140 O.2   285  ARG285     -0.2864
     54  CB        80.3800   -2.0480   22.5830 C.3   285  ARG285      0.0334
     55  CG        81.7210   -2.6980   22.2620 C.3   285  ARG285      0.0492
     56  CD        82.8190   -1.6610   22.0400 C.3   285  ARG285      0.2205
     57  NE        83.0560   -0.8580   23.2390 N.pl3 285  ARG285     -0.0865
     58  CZ        83.4420   -1.3570   24.4110 C.cat 285  ARG285      0.5346
     59  NH1       83.6400   -2.6680   24.5450 N.pl3 285  ARG285      0.1354
     60  NH2       83.6310   -0.5440   25.4470 N.pl3 285  ARG285      0.1354
     61  N         77.1320   -6.8240   24.0910 N.3   288  ASP288     -0.1239
     62  CA        77.4440   -7.8120   23.0710 C.3   288  ASP288      0.1674
     63  C         78.4250   -8.8100   23.6810 C.2   288  ASP288      0.2266
     64  O         78.2840  -10.0180   23.4950 O.2   288  ASP288     -0.2867
     65  CB        78.0450   -7.1440   21.8290 C.3   288  ASP288      0.1410
     66  CG        78.1880   -8.1100   20.6590 C.2   288  ASP288      0.3668
     67  OD1       77.5260   -9.1760   20.6940 O.co2 288  ASP288     -0.2456
     68  OD2       78.9470   -7.8070   19.7090 O.co2 288  ASP288     -0.2456
     69  N         74.7850    5.2730   12.2420 N.3   330  ALA330     -0.1231
     70  CA        74.9880    5.5630   13.6600 C.3   330  ALA330      0.1694
     71  C         75.8850    4.4890   14.2880 C.2   330  ALA330      0.2593
     72  O         76.1800    3.4530   13.6690 O.2   330  ALA330     -0.2718
     73  CB        73.6360    5.6550   14.3910 C.3   330  ALA330      0.0304
     74  N         76.3100    4.7420   15.5230 N.am  331  GLY331     -0.1942
     75  CA        77.2150    3.8380   16.2220 C.3   331  GLY331      0.2014
     76  C         77.0090    2.3380   16.1260 C.2   331  GLY331      0.2638
     77  O         77.9240    1.6030   15.7600 O.2   331  GLY331     -0.2714
     78  N         75.8240    1.8720   16.4870 N.am  332  ILE332     -0.1977
     79  CA        75.5480    0.4520   16.4310 C.3   332  ILE332      0.1596
     80  C         75.4590    0.0240   14.9750 C.2   332  ILE332      0.2287
     81  O         75.9870   -1.0130   14.5840 O.2   332  ILE332     -0.2864
     82  CB        74.2210    0.1220   17.1260 C.3   332  ILE332      0.0276
     83  CG1       74.2480    0.6570   18.5630 C.3   332  ILE332      0.0022
     84  CG2       73.9910   -1.3810   17.1020 C.3   332  ILE332      0.0022
     85  CD1       72.8940    0.7040   19.2380 C.3   332  ILE332      0.0001
     86  N         79.2590    0.0990   13.2780 N.3   335  ASN335     -0.1225
     87  CA        80.2890   -0.8000   13.7820 C.3   335  ASN335      0.1785
     88  C         79.8580   -2.1540   14.3350 C.2   335  ASN335      0.2597
     89  O         80.6950   -2.9060   14.8020 O.2   335  ASN335     -0.2718
     90  CB        81.1020   -0.0850   14.8770 C.3   335  ASN335      0.1169
     91  CG        81.3210    1.3970   14.5940 C.2   335  ASN335      0.2627
     92  OD1       81.9750    1.7730   13.6220 O.2   335  ASN335     -0.2716
     93  ND2       80.7710    2.2420   15.4520 N.am  335  ASN335     -0.0877
     94  N         78.5790   -2.4870   14.2990 N.am  336  SER336     -0.1952
     95  CA        78.2010   -3.7770   14.8610 C.3   336  SER336      0.1924
     96  C         77.6960   -4.8180   13.8700 C.2   336  SER336      0.2314
     97  O         76.5020   -4.9040   13.5820 O.2   336  SER336     -0.2863
     98  CB        77.1720   -3.6020   15.9750 C.3   336  SER336      0.2116
     99  OG        76.8440   -4.8610   16.5360 O.3   336  SER336     -0.2180
    100  N         75.0620   -7.1750   15.7740 N.3   339  ILE339     -0.1245
    101  CA        73.6610   -6.8100   15.8310 C.3   339  ILE339      0.1561
    102  C         73.0170   -6.7510   14.4430 C.2   339  ILE339      0.2260
    103  O         71.8830   -7.1980   14.2760 O.2   339  ILE339     -0.2867
    104  CB        73.5020   -5.4640   16.5530 C.3   339  ILE339      0.0252
    105  CG1       73.9790   -5.6250   17.9980 C.3   339  ILE339      0.0019
    106  CG2       72.0530   -5.0040   16.5150 C.3   339  ILE339      0.0019
    107  CD1       73.8390   -4.3860   18.8470 C.3   339  ILE339      0.0001
    108  N         83.9410   -2.5500    9.0580 N.3   362  ARG362     -0.1245
    109  CA        83.4290   -1.4780    9.9170 C.3   362  ARG362      0.1563
    110  C         83.5910   -0.1010    9.2930 C.2   362  ARG362      0.2260
    111  O         84.5020    0.1360    8.4870 O.2   362  ARG362     -0.2867
    112  CB        84.1190   -1.4720   11.2840 C.3   362  ARG362      0.0307
    113  CG        83.7870   -2.6420   12.1900 C.3   362  ARG362      0.0489
    114  CD        84.3060   -2.3850   13.5990 C.3   362  ARG362      0.2205
    115  NE        84.1070   -3.5290   14.4910 N.pl3 362  ARG362     -0.0865
    116  CZ        84.4530   -3.5430   15.7750 C.cat 362  ARG362      0.5346
    117  NH1       85.0220   -2.4640   16.3110 N.pl3 362  ARG362      0.1354
    118  NH2       84.2370   -4.6320   16.5130 N.pl3 362  ARG362      0.1354
@<TRIPOS>BOND
     1   111   110    2
     2   108   109    1
     3   110   109    1
     4   109   112    1
     5   112   113    1
     6     1     2    1
     7   113   114    1
     8    69    70    1
     9     2     5    1
    10     2     3    1
    11     5     6    1
    12    86    87    1
    13     7     6   ar
    14     7     9   ar
    15    97    96    2
    16   114   115    1
    17    92    91    2
    18    70    71    1
    19    70    73    1
    20    72    71    2
    21    87    88    1
    22    87    90    1
    23    96    95    1
    24     6     8   ar
    25     3     4    2
    26   103   102    2
    27    71    74   am
    28    94    88   am
    29    94    95    1
    30    88    89    2
    31     9    10   ar
    32   102   101    1
    33   115   116    2
    34    81    80    2
    35    91    90    1
    36    91    93   am
    37    95    98    1
    38    80    79    1
    39     8    10   ar
    40    74    75    1
    41    77    76    2
    42   100   101    1
    43   116   117    1
    44   116   118    1
    45   101   104    1
    46    98    99    1
    47    76    75    1
    48    76    78   am
    49    79    78    1
    50    79    82    1
    51   106   104    1
    52   104   105    1
    53    84    82    1
    54    82    83    1
    55    11    12    1
    56   105   107    1
    57    83    85    1
    58    12    13    1
    59    68    66   ar
    60    13    14    2
    61    13    15   am
    62    66    67   ar
    63    66    65    1
    64    15    16    1
    65    46    48   ar
    66    46    44   ar
    67    48    49   ar
    68    65    62    1
    69    43    44    1
    70    43    40    1
    71    56    55    1
    72    56    57    1
    73    44    45   ar
    74    17    16    1
    75    17    18    2
    76    55    54    1
    77    49    47   ar
    78    16    19    1
    79    54    51    1
    80    45    47   ar
    81    51    50    1
    82    51    52    1
    83    50    41   am
    84    62    63    1
    85    62    61    1
    86    19    20    1
    87    57    58    2
    88    41    42    2
    89    41    40    1
    90    40    39    1
    91    64    63    2
    92    53    52    2
    93    39    33   am
    94    58    59    1
    95    58    60    1
    96    20    22   am
    97    20    21    2
    98    37    36   ar
    99    38    36   ar
   100    33    34    2
   101    33    32    1
   102    36    35    1
   103    26    25    2
   104    32    35    1
   105    32    31    1
   106    25    31   am
   107    25    24    1
   108    30    28   am
   109    24    27    1
   110    24    23    1
   111    28    27    1
   112    28    29    2
