@<TRIPOS>MOLECULE
tmp/1tuuA00.pdb
 120 114 0 0 0
SMALL
GASTEIGER

@<TRIPOS>ATOM
      1  N         25.7560  -11.0950   23.9140 N.3    14  LYS14      -0.1245
      2  CA        25.6500  -12.0140   22.7750 C.3    14  LYS14       0.1561
      3  C         25.6320  -13.4500   23.2590 C.2    14  LYS14       0.2260
      4  O         26.5730  -13.8950   23.9170 O.2    14  LYS14      -0.2867
      5  CB        26.8420  -11.8530   21.8290 C.3    14  LYS14       0.0271
      6  CG        26.7540  -10.7120   20.8370 C.3    14  LYS14       0.0035
      7  CD        28.0960  -10.4940   20.1310 C.3    14  LYS14       0.0206
      8  CE        28.5930  -11.7820   19.4830 C.3    14  LYS14       0.1093
      9  NZ        29.9510  -11.6260   18.8480 N.3    14  LYS14      -0.1314
     10  N         41.8930   -9.6270   13.2730 N.3   208  HIS208     -0.1241
     11  CA        40.5750   -9.5590   13.8980 C.3   208  HIS208      0.1621
     12  C         40.2620   -8.0500   13.9670 C.2   208  HIS208      0.2264
     13  O         40.9830   -7.2970   14.6280 O.2   208  HIS208     -0.2867
     14  CB        40.6560  -10.1720   15.3050 C.3   208  HIS208      0.0745
     15  CG        39.3380  -10.2780   16.0150 C.ar  208  HIS208      0.0817
     16  ND1       38.5540  -11.4090   15.9640 N.ar  208  HIS208     -0.2268
     17  CD2       38.6870   -9.4090   16.8260 C.ar  208  HIS208      0.1154
     18  CE1       37.4810  -11.2350   16.7180 C.ar  208  HIS208      0.1986
     19  NE2       37.5390  -10.0300   17.2530 N.ar  208  HIS208     -0.2212
     20  N         37.2270   -5.5250   14.9650 N.3   210  GLY210     -0.1210
     21  CA        35.8760   -5.2970   15.4500 C.3   210  GLY210      0.1956
     22  C         35.9310   -4.1400   16.4130 C.2   210  GLY210      0.2612
     23  O         36.8030   -3.2960   16.2750 O.2   210  GLY210     -0.2717
     24  N         35.0320   -4.0880   17.3870 N.am  211  ASN211     -0.1960
     25  CA        35.0710   -2.9970   18.3460 C.3   211  ASN211      0.1819
     26  C         36.5180   -2.8620   18.7920 C.2   211  ASN211      0.2621
     27  O         37.0260   -1.7630   19.0240 O.2   211  ASN211     -0.2715
     28  CB        34.2060   -3.2990   19.5720 C.3   211  ASN211      0.1195
     29  CG        33.0800   -2.3180   19.7390 C.2   211  ASN211      0.2630
     30  OD1       32.0910   -2.3740   18.9980 O.2   211  ASN211     -0.2716
     31  ND2       33.2180   -1.4010   20.7020 N.am  211  ASN211     -0.0877
     32  N         37.1650   -4.0120   18.9210 N.am  212  GLY212     -0.1954
     33  CA        38.5590   -4.0420   19.2950 C.3   212  GLY212      0.1869
     34  C         39.2250   -4.7340   18.1350 C.2   212  GLY212      0.2309
     35  O         38.6040   -5.5710   17.4960 O.2   212  GLY212     -0.2863
     36  N         31.9500    5.4640   17.4910 N.3   282  ASN282     -0.1225
     37  CA        32.9060    4.3610   17.4780 C.3   282  ASN282      0.1785
     38  C         32.4990    3.2850   16.4970 C.2   282  ASN282      0.2597
     39  O         33.2220    2.3020   16.3180 O.2   282  ASN282     -0.2718
     40  CB        32.9850    3.7280   18.8560 C.3   282  ASN282      0.1169
     41  CG        31.6600    3.1340   19.2800 C.2   282  ASN282      0.2627
     42  OD1       30.6180    3.7350   19.0670 O.2   282  ASN282     -0.2716
     43  ND2       31.6930    1.9600   19.8860 N.am  282  ASN282     -0.0877
     44  N         31.3280    3.4450   15.8910 N.am  283  ASP283     -0.1960
     45  CA        30.8170    2.4600   14.9420 C.3   283  ASP283      0.1840
     46  C         31.4570    2.6960   13.5750 C.2   283  ASP283      0.2622
     47  O         31.2880    3.7600   12.9680 O.2   283  ASP283     -0.2715
     48  CB        29.2990    2.5910   14.8540 C.3   283  ASP283      0.1450
     49  CG        28.6690    1.4840   14.0690 C.2   283  ASP283      0.3671
     50  OD1       28.7900    0.3210   14.4990 O.co2 283  ASP283     -0.2456
     51  OD2       28.0560    1.7690   13.0280 O.co2 283  ASP283     -0.2456
     52  N         32.1930    1.7080   13.0830 N.am  284  PHE284     -0.1960
     53  CA        32.8630    1.8640   11.8010 C.3   284  PHE284      0.1771
     54  C         31.8940    1.9510   10.6320 C.2   284  PHE284      0.2619
     55  O         32.2090    2.5210    9.5900 O.2   284  PHE284     -0.2715
     56  CB        33.8890    0.7400   11.5940 C.3   284  PHE284      0.0574
     57  CG        35.1360    0.8940   12.4400 C.ar  284  PHE284     -0.0200
     58  CD1       35.1260    0.5920   13.8020 C.ar  284  PHE284     -0.0042
     59  CD2       36.3210    1.3440   11.8670 C.ar  284  PHE284     -0.0042
     60  CE1       36.2890    0.7340   14.5730 C.ar  284  PHE284     -0.0003
     61  CE2       37.4840    1.4900   12.6260 C.ar  284  PHE284     -0.0003
     62  CZ        37.4710    1.1840   13.9800 C.ar  284  PHE284     -0.0000
     63  N         30.7030    1.3980   10.8100 N.am  285  ARG285     -0.1977
     64  CA        29.6940    1.4660    9.7680 C.3   285  ARG285      0.1597
     65  C         29.2950    2.9280    9.6520 C.2   285  ARG285      0.2287
     66  O         29.2920    3.4940    8.5600 O.2   285  ARG285     -0.2864
     67  CB        28.4880    0.6240   10.1520 C.3   285  ARG285      0.0334
     68  CG        27.7880   -0.0190    8.9820 C.3   285  ARG285      0.0492
     69  CD        26.5210   -0.7190    9.4240 C.3   285  ARG285      0.2205
     70  NE        26.7460   -1.6160   10.5580 N.pl3 285  ARG285     -0.0865
     71  CZ        26.4930   -1.3100   11.8310 C.cat 285  ARG285      0.5346
     72  NH1       26.0010   -0.1140   12.1440 N.pl3 285  ARG285      0.1354
     73  NH2       26.7150   -2.2060   12.7930 N.pl3 285  ARG285      0.1354
     74  N         32.0110    4.8490    8.0690 N.3   288  ASP288     -0.1239
     75  CA        32.1400    4.5670    6.6490 C.3   288  ASP288      0.1674
     76  C         31.1730    5.4520    5.8740 C.2   288  ASP288      0.2266
     77  O         31.5600    6.1380    4.9390 O.2   288  ASP288     -0.2867
     78  CB        31.8380    3.0970    6.3800 C.3   288  ASP288      0.1410
     79  CG        32.1660    2.6910    4.9570 C.2   288  ASP288      0.3668
     80  OD1       32.5620    3.5800    4.1720 O.co2 288  ASP288     -0.2456
     81  OD2       32.0190    1.4990    4.6200 O.co2 288  ASP288     -0.2456
     82  N         36.0690  -10.9070   11.8490 N.3   330  ALA330     -0.1231
     83  CA        35.3630  -10.0460   12.7960 C.3   330  ALA330      0.1694
     84  C         34.4280   -9.0580   12.0980 C.2   330  ALA330      0.2593
     85  O         34.2950   -9.0730   10.8760 O.2   330  ALA330     -0.2718
     86  CB        36.3430   -9.3090   13.6870 C.3   330  ALA330      0.0304
     87  N         33.7750   -8.2090   12.8870 N.am  331  GLY331     -0.1942
     88  CA        32.8410   -7.2390   12.3440 C.3   331  GLY331      0.2014
     89  C         33.3030   -6.4920   11.1060 C.2   331  GLY331      0.2638
     90  O         32.7090   -6.6200   10.0370 O.2   331  GLY331     -0.2714
     91  N         34.3750   -5.7210   11.2450 N.am  332  ILE332     -0.1977
     92  CA        34.9260   -4.9420   10.1440 C.3   332  ILE332      0.1596
     93  C         35.5840   -5.8360    9.0940 C.2   332  ILE332      0.2287
     94  O         35.3260   -5.6990    7.9010 O.2   332  ILE332     -0.2864
     95  CB        35.9860   -3.9430   10.6560 C.3   332  ILE332      0.0276
     96  CG1       35.4330   -3.1550   11.8430 C.3   332  ILE332      0.0022
     97  CG2       36.3840   -2.9860    9.5480 C.3   332  ILE332      0.0022
     98  CD1       36.4310   -2.2360   12.5050 C.3   332  ILE332      0.0001
     99  N         32.7200   -7.9840    7.0060 N.3   335  ASN335     -0.1225
    100  CA        31.7580   -7.2160    6.2310 C.3   335  ASN335      0.1785
    101  C         32.2800   -6.0280    5.4500 C.2   335  ASN335      0.2597
    102  O         31.9060   -5.8400    4.3060 O.2   335  ASN335     -0.2718
    103  CB        30.6430   -6.7650    7.1570 C.3   335  ASN335      0.1169
    104  CG        30.2600   -7.8380    8.1420 C.2   335  ASN335      0.2627
    105  OD1       29.8580   -8.9360    7.7590 O.2   335  ASN335     -0.2716
    106  ND2       30.3930   -7.5340    9.4230 N.am  335  ASN335     -0.0877
    107  N         33.1510   -5.2280    6.0480 N.am  336  SER336     -0.1952
    108  CA        33.6410   -4.0600    5.3330 C.3   336  SER336      0.1924
    109  C         34.5950   -4.3900    4.1820 C.2   336  SER336      0.2314
    110  O         35.6830   -4.9310    4.3910 O.2   336  SER336     -0.2863
    111  CB        34.3130   -3.0830    6.2860 C.3   336  SER336      0.2116
    112  OG        34.7160   -1.9190    5.5900 O.3   336  SER336     -0.2180
    113  N         36.8000   -0.6570    3.8410 N.3   339  ILE339     -0.1245
    114  CA        37.9060   -0.5320    4.7710 C.3   339  ILE339      0.1561
    115  C         38.9930   -1.5290    4.3750 C.2   339  ILE339      0.2260
    116  O         40.1850   -1.2080    4.3910 O.2   339  ILE339     -0.2867
    117  CB        37.4150   -0.7600    6.2270 C.3   339  ILE339      0.0252
    118  CG1       36.6320    0.4800    6.6760 C.3   339  ILE339      0.0019
    119  CG2       38.5870   -1.0550    7.1670 C.3   339  ILE339      0.0019
    120  CD1       35.7280    0.2780    7.8690 C.3   339  ILE339      0.0001
@<TRIPOS>BOND
     1   113   114    1
     2    80    79   ar
     3   109   110    2
     4   109   108    1
     5   102   101    2
     6   115   116    2
     7   115   114    1
     8    81    79   ar
     9   114   117    1
    10    77    76    2
    11    79    78    1
    12   108   107    1
    13   108   111    1
    14   101   107   am
    15   101   100    1
    16   112   111    1
    17    76    75    1
    18   117   118    1
    19   117   119    1
    20   100    99    1
    21   100   103    1
    22    78    75    1
    23    75    74    1
    24   118   120    1
    25   103   104    1
    26   105   104    2
    27    94    93    2
    28   104   106   am
    29    66    65    2
    30    68    69    1
    31    68    67    1
    32    93    92    1
    33    69    70    1
    34    97    95    1
    35    55    54    2
    36    65    64    1
    37    64    67    1
    38    64    63    1
    39    90    89    2
    40    92    95    1
    41    92    91    1
    42    70    71    2
    43    54    63   am
    44    54    53    1
    45    95    96    1
    46    85    84    2
    47    89    91   am
    48    89    88    1
    49    56    53    1
    50    56    57    1
    51    53    52    1
    52    71    72    1
    53    71    73    1
    54    96    98    1
    55    82    83    1
    56    59    57   ar
    57    59    61   ar
    58    84    83    1
    59    84    87   am
    60    88    87    1
    61    57    58   ar
    62    61    62   ar
    63    83    86    1
    64    47    46    2
    65    51    49   ar
    66    52    46   am
    67    10    11    1
    68    46    45    1
    69    58    60   ar
    70    11    12    1
    71    11    14    1
    72    12    13    2
    73    62    60   ar
    74    49    50   ar
    75    49    48    1
    76    48    45    1
    77    45    44    1
    78    20    21    1
    79    14    15    1
    80    21    22    1
    81    44    38   am
    82    16    15   ar
    83    16    18   ar
    84    15    17   ar
    85    23    22    2
    86    39    38    2
    87    22    24   am
    88    38    37    1
    89    18    19   ar
    90    17    19   ar
    91    24    25    1
    92    37    36    1
    93    37    40    1
    94    35    34    2
    95    34    33    1
    96    25    26    1
    97    25    28    1
    98    26    32   am
    99    26    27    2
   100     9     8    1
   101    40    41    1
   102    32    33    1
   103    30    29    2
   104    42    41    2
   105    41    43   am
   106     8     7    1
   107    28    29    1
   108    29    31   am
   109     7     6    1
   110     6     5    1
   111     5     2    1
   112     2     3    1
   113     2     1    1
   114     3     4    2
