@<TRIPOS>MOLECULE
tmp/1tuuB01.pdb
 90 87 0 0 0
SMALL
GASTEIGER

@<TRIPOS>ATOM
      1  N         68.0470   19.9880   18.1100 N.3    93  VAL93      -0.1245
      2  CA        67.2610   18.7720   18.0380 C.3    93  VAL93       0.1561
      3  C         65.7640   19.0150   17.9030 C.2    93  VAL93       0.2260
      4  O         65.1540   18.5680   16.9240 O.2    93  VAL93      -0.2867
      5  CB        67.5180   17.8520   19.2510 C.3    93  VAL93       0.0252
      6  CG1       66.5770   16.6630   19.2160 C.3    93  VAL93       0.0019
      7  CG2       68.9650   17.3730   19.2330 C.3    93  VAL93       0.0019
      8  N         63.9260   16.8260   27.1960 N.3   123  HIS123     -0.1241
      9  CA        64.8300   16.9980   28.3300 C.3   123  HIS123      0.1621
     10  C         65.9580   18.0270   28.1810 C.2   123  HIS123      0.2264
     11  O         66.4310   18.5730   29.1790 O.2   123  HIS123     -0.2867
     12  CB        65.4110   15.6290   28.7380 C.3   123  HIS123      0.0745
     13  CG        66.3090   15.0080   27.7090 C.ar  123  HIS123      0.0817
     14  ND1       67.0110   13.8460   27.9490 N.ar  123  HIS123     -0.2268
     15  CD2       66.6460   15.4000   26.4560 C.ar  123  HIS123      0.1154
     16  CE1       67.7450   13.5510   26.8900 C.ar  123  HIS123      0.1986
     17  NE2       67.5430   14.4780   25.9700 N.ar  123  HIS123     -0.2212
     18  N         62.6620   12.3970   14.9900 N.3   179  PHE179     -0.1227
     19  CA        63.9720   13.0040   15.1430 C.3   179  PHE179      0.1736
     20  C         65.0360   12.3110   14.2840 C.2   179  PHE179      0.2595
     21  O         64.7200   11.4090   13.5080 O.2   179  PHE179     -0.2718
     22  CB        64.3430   12.9790   16.6240 C.3   179  PHE179      0.0547
     23  CG        63.2240   13.4350   17.5250 C.ar  179  PHE179     -0.0202
     24  CD1       62.1670   12.5830   17.8210 C.ar  179  PHE179     -0.0042
     25  CD2       63.1990   14.7310   18.0380 C.ar  179  PHE179     -0.0042
     26  CE1       61.1050   13.0170   18.6120 C.ar  179  PHE179     -0.0003
     27  CE2       62.1380   15.1750   18.8310 C.ar  179  PHE179     -0.0003
     28  CZ        61.0880   14.3120   19.1180 C.ar  179  PHE179     -0.0000
     29  N         66.2890   12.7460   14.4360 N.am  180  HIS180     -0.1975
     30  CA        67.4280   12.2210   13.6750 C.3   180  HIS180      0.1656
     31  C         67.2880   12.5850   12.2010 C.2   180  HIS180      0.2291
     32  O         67.9190   11.9880   11.3270 O.2   180  HIS180     -0.2864
     33  CB        67.5160   10.7020   13.8470 C.3   180  HIS180      0.0771
     34  CG        67.8640   10.2750   15.2370 C.ar  180  HIS180      0.0820
     35  ND1       67.4980    9.0490   15.7480 N.ar  180  HIS180     -0.2267
     36  CD2       68.5670   10.8940   16.2130 C.ar  180  HIS180      0.1154
     37  CE1       67.9580    8.9280   16.9800 C.ar  180  HIS180      0.1986
     38  NE2       68.6110   10.0330   17.2870 N.ar  180  HIS180     -0.2212
     39  N         68.9360    4.4000   12.0100 N.3   208  HIS208     -0.1241
     40  CA        69.8750    5.1200   12.8660 C.3   208  HIS208      0.1621
     41  C         69.9050    4.3850   14.2080 C.2   208  HIS208      0.2264
     42  O         68.9970    4.5310   15.0330 O.2   208  HIS208     -0.2867
     43  CB        69.3980    6.5620   13.0710 C.3   208  HIS208      0.0745
     44  CG        70.3010    7.3790   13.9400 C.ar  208  HIS208      0.0817
     45  ND1       71.3010    8.1870   13.4370 N.ar  208  HIS208     -0.2268
     46  CD2       70.3710    7.4910   15.2860 C.ar  208  HIS208      0.1154
     47  CE1       71.9450    8.7600   14.4390 C.ar  208  HIS208      0.1986
     48  NE2       71.4010    8.3520   15.5710 N.ar  208  HIS208     -0.2212
     49  N         71.8270    3.9720   17.6180 N.3   210  GLY210     -0.1210
     50  CA        72.7750    4.4960   18.5850 C.3   210  GLY210      0.1956
     51  C         72.2050    4.4160   19.9900 C.2   210  GLY210      0.2612
     52  O         71.3310    3.5840   20.2370 O.2   210  GLY210     -0.2717
     53  N         72.6710    5.2560   20.9170 N.am  211  ASN211     -0.1960
     54  CA        72.1250    5.1990   22.2750 C.3   211  ASN211      0.1819
     55  C         70.6280    5.3520   22.1550 C.2   211  ASN211      0.2621
     56  O         69.8650    4.7650   22.9270 O.2   211  ASN211     -0.2715
     57  CB        72.6610    6.3140   23.1760 C.3   211  ASN211      0.1195
     58  CG        72.1700    6.1660   24.6170 C.2   211  ASN211      0.2630
     59  OD1       72.4250    5.1450   25.2540 O.2   211  ASN211     -0.2716
     60  ND2       71.4610    7.1690   25.1290 N.am  211  ASN211     -0.0877
     61  N         70.2380    6.1660   21.1780 N.am  212  GLY212     -0.1954
     62  CA        68.8380    6.4160   20.8920 C.3   212  GLY212      0.1869
     63  C         68.6440    5.9170   19.4740 C.2   212  GLY212      0.2309
     64  O         69.4990    6.1310   18.6210 O.2   212  GLY212     -0.2863
     65  N         60.1670    7.3160   15.9540 N.3   228  MET228     -0.1245
     66  CA        59.9780    8.1960   17.0980 C.3   228  MET228      0.1570
     67  C         58.7330    9.0130   16.7920 C.2   228  MET228      0.2261
     68  O         58.2620    9.0290   15.6640 O.2   228  MET228     -0.2867
     69  CB        61.1750    9.1380   17.2690 C.3   228  MET228      0.0387
     70  CG        62.2790    8.6040   18.1720 C.3   228  MET228      0.0595
     71  SD        63.7410    9.5070   18.1570 S.3   228  MET228     -0.1393
     72  CE        64.8680    8.4260   19.1930 C.3   228  MET228      0.0692
     73  N         61.2860   11.5080   21.7170 N.3   232  PRO232     -0.2116
     74  CA        62.2470   10.4930   21.2880 C.3   232  PRO232      0.1372
     75  C         61.9750    9.1510   21.9610 C.2   232  PRO232      0.2244
     76  O         62.6630    8.1570   21.7040 O.2   232  PRO232     -0.2868
     77  CB        63.5850   11.0880   21.7040 C.3   232  PRO232      0.0268
     78  CG        63.3340   12.5810   21.6140 C.3   232  PRO232      0.0207
     79  CD        61.9830   12.6770   22.2780 C.3   232  PRO232      0.0892
     80  N         65.8320    3.7260   26.7480 N.3   241  ARG241     -0.1245
     81  CA        64.4160    3.9550   26.4740 C.3   241  ARG241      0.1563
     82  C         63.6510    2.6620   26.1860 C.2   241  ARG241      0.2260
     83  O         64.1660    1.7660   25.5270 O.2   241  ARG241     -0.2867
     84  CB        64.2710    4.9000   25.2790 C.3   241  ARG241      0.0307
     85  CG        64.9800    6.2530   25.4000 C.3   241  ARG241      0.0489
     86  CD        64.0890    7.2980   24.7230 C.3   241  ARG241      0.2205
     87  NE        64.6520    8.6400   24.6780 N.pl3 241  ARG241     -0.0865
     88  CZ        65.6480    9.0050   23.8810 C.cat 241  ARG241      0.5346
     89  NH1       66.2010    8.1230   23.0580 N.pl3 241  ARG241      0.1354
     90  NH2       66.0730   10.2610   23.8860 N.pl3 241  ARG241      0.1354
@<TRIPOS>BOND
     1    32    31    2
     2    39    40    1
     3    31    30    1
     4    40    43    1
     5    40    41    1
     6    43    44    1
     7    45    44   ar
     8    45    47   ar
     9    21    20    2
    10    30    33    1
    11    30    29    1
    12    33    34    1
    13    44    46   ar
    14    41    42    2
    15    20    29   am
    16    20    19    1
    17    47    48   ar
    18    18    19    1
    19    19    22    1
    20    34    35   ar
    21    34    36   ar
    22    46    48   ar
    23    68    67    2
    24    35    37   ar
    25    65    66    1
    26    36    38   ar
    27    22    23    1
    28    67    66    1
    29     4     3    2
    30    37    38   ar
    31    66    69    1
    32    69    70    1
    33    23    24   ar
    34    23    25   ar
    35    49    50    1
    36    24    26   ar
    37     3     2    1
    38    25    27   ar
    39     2     1    1
    40     2     5    1
    41    71    70    1
    42    71    72    1
    43    50    51    1
    44    26    28   ar
    45    64    63    2
    46    27    28   ar
    47     6     5    1
    48     7     5    1
    49    63    62    1
    50    51    52    2
    51    51    53   am
    52    62    61    1
    53    53    54    1
    54    61    55   am
    55    74    77    1
    56    74    73    1
    57    74    75    1
    58    78    77    1
    59    78    79    1
    60    76    75    2
    61    73    79    1
    62    55    54    1
    63    55    56    2
    64    54    57    1
    65    89    88    1
    66    57    58    1
    67    88    90    1
    68    88    87    2
    69    58    60   am
    70    58    59    2
    71    87    86    1
    72    86    85    1
    73    84    85    1
    74    84    81    1
    75    83    82    2
    76    17    15   ar
    77    17    16   ar
    78    82    81    1
    79    15    13   ar
    80    81    80    1
    81    16    14   ar
    82     8     9    1
    83    13    14   ar
    84    13    12    1
    85    10     9    1
    86    10    11    2
    87     9    12    1
