@<TRIPOS>MOLECULE
tmp/1tuvA00.pdb
 128 119 0 0 0
SMALL
GASTEIGER

@<TRIPOS>ATOM
      1  N          0.6710    5.8690  -22.4150 N.3     4  VAL4       -0.1245
      2  CA        -0.7450    5.9320  -22.7880 C.3     4  VAL4        0.1561
      3  C         -1.1340    7.3790  -22.9690 C.2     4  VAL4        0.2260
      4  O         -0.9050    8.2150  -22.0860 O.2     4  VAL4       -0.2867
      5  CB        -1.6660    5.2960  -21.7410 C.3     4  VAL4        0.0252
      6  CG1       -3.1300    5.5570  -22.1640 C.3     4  VAL4        0.0019
      7  CG2       -1.3460    3.8980  -21.5850 C.3     4  VAL4        0.0019
      8  N         -4.7720    9.0810  -23.6800 N.3     6  ALA6       -0.1245
      9  CA        -6.2110    8.7960  -23.8210 C.3     6  ALA6        0.1562
     10  C         -6.9620   10.1240  -23.9280 C.2     6  ALA6        0.2260
     11  O         -6.7990   11.0140  -23.0950 O.2     6  ALA6       -0.2867
     12  CB        -6.6990    8.0160  -22.6580 C.3     6  ALA6        0.0290
     13  N        -10.4650   11.7880  -23.6540 N.3     8  ILE8       -0.1245
     14  CA       -11.7930   11.6310  -23.1630 C.3     8  ILE8        0.1561
     15  C        -12.6430   12.7720  -23.6820 C.2     8  ILE8        0.2260
     16  O        -12.4130   13.9340  -23.3540 O.2     8  ILE8       -0.2867
     17  CB       -11.7850   11.6420  -21.6520 C.3     8  ILE8        0.0252
     18  CG1      -10.9240   10.4680  -21.1600 C.3     8  ILE8        0.0019
     19  CG2      -13.1690   11.6170  -21.0730 C.3     8  ILE8        0.0019
     20  CD1      -10.4870   10.6780  -19.7810 C.3     8  ILE8        0.0001
     21  N        -11.4000   13.0630  -11.6060 N.3    24  PHE24      -0.1241
     22  CA        -9.9750   12.7730  -11.6390 C.3    24  PHE24       0.1605
     23  C         -9.2220   13.2940  -10.3970 C.2    24  PHE24       0.2264
     24  O         -8.3090   12.6170   -9.8930 O.2    24  PHE24      -0.2867
     25  CB        -9.3230   13.3400  -12.9250 C.3    24  PHE24       0.0534
     26  CG        -9.5200   12.4400  -14.1210 C.ar   24  PHE24      -0.0203
     27  CD1       -9.0420   11.1330  -14.1130 C.ar   24  PHE24      -0.0042
     28  CD2      -10.2580   12.8510  -15.2030 C.ar   24  PHE24      -0.0042
     29  CE1       -9.2440   10.2890  -15.1840 C.ar   24  PHE24      -0.0003
     30  CE2      -10.4520   11.9940  -16.2760 C.ar   24  PHE24      -0.0003
     31  CZ        -9.9540   10.7210  -16.2590 C.ar   24  PHE24      -0.0000
     32  N          0.4750    9.8600  -14.5150 N.3    40  TYR40      -0.1241
     33  CA        -0.9910    9.9070  -14.6880 C.3    40  TYR40       0.1605
     34  C         -1.4810   11.2900  -14.5080 C.2    40  TYR40       0.2264
     35  O         -1.7310   11.7390  -13.3990 O.2    40  TYR40      -0.2867
     36  CB        -1.6780    8.9110  -13.7570 C.3    40  TYR40       0.0534
     37  CG        -3.0870    8.5980  -14.0560 C.ar   40  TYR40      -0.0201
     38  CD1       -3.4080    7.6440  -14.9900 C.ar   40  TYR40      -0.0009
     39  CD2       -4.1090    9.2360  -13.3920 C.ar   40  TYR40      -0.0009
     40  CE1       -4.7310    7.3470  -15.2550 C.ar   40  TYR40       0.0417
     41  CE2       -5.4470    8.8970  -13.6110 C.ar   40  TYR40       0.0417
     42  CZ        -5.7180    7.9430  -14.5360 C.ar   40  TYR40       0.1957
     43  OH        -7.0230    7.6020  -14.7640 O.3    40  TYR40      -0.2866
     44  N         -5.4750   12.4360  -21.1740 N.3    62  MET62      -0.1245
     45  CA        -4.6030   11.7810  -20.2010 C.3    62  MET62       0.1570
     46  C         -3.2520   11.4120  -20.7840 C.2    62  MET62       0.2261
     47  O         -3.1850   10.7460  -21.8380 O.2    62  MET62      -0.2867
     48  CB        -5.2210   10.4540  -19.7440 C.3    62  MET62       0.0387
     49  CG        -6.5940   10.5810  -19.2400 C.3    62  MET62       0.0595
     50  SD        -6.8810   11.6600  -17.9310 S.3    62  MET62      -0.1393
     51  CE        -5.7750   11.0170  -16.6760 C.3    62  MET62       0.0692
     52  N         -0.0690    9.1880  -19.5000 N.3    64  GLU64      -0.1245
     53  CA         0.2360    8.1540  -18.4780 C.3    64  GLU64       0.1567
     54  C          1.4270    7.3060  -18.8890 C.2    64  GLU64       0.2260
     55  O          1.7410    7.1400  -20.0650 O.2    64  GLU64      -0.2867
     56  CB        -0.9590    7.2120  -18.3900 C.3    64  GLU64       0.0388
     57  CG        -2.3080    7.8110  -18.6560 C.3    64  GLU64       0.1160
     58  CD        -3.4620    6.8280  -18.4950 C.2    64  GLU64       0.3649
     59  OE1       -3.3110    5.6800  -18.0030 O.co2  64  GLU64      -0.2457
     60  OE2       -4.5760    7.2470  -18.8890 O.co2  64  GLU64      -0.2457
     61  N         -1.3490   -1.8130  -16.6510 N.3    72  LEU72      -0.1245
     62  CA        -2.4540   -1.0360  -17.1550 C.3    72  LEU72       0.1561
     63  C         -3.8000   -1.7560  -17.0300 C.2    72  LEU72       0.2260
     64  O         -4.8080   -1.1650  -16.6270 O.2    72  LEU72      -0.2867
     65  CB        -2.1770   -0.6740  -18.6390 C.3    72  LEU72       0.0270
     66  CG        -3.2980    0.1240  -19.2920 C.3    72  LEU72       0.0019
     67  CD1       -3.6660    1.3870  -18.6000 C.3    72  LEU72       0.0001
     68  CD2       -2.8820    0.3420  -20.7660 C.3    72  LEU72       0.0001
     69  N         -4.9370   -1.7250  -13.4990 N.3    75  HIS75      -0.1226
     70  CA        -5.4390   -0.3910  -13.2620 C.3    75  HIS75       0.1752
     71  C         -6.9280   -0.2620  -13.5900 C.2    75  HIS75       0.2595
     72  O         -7.6880    0.2930  -12.8300 O.2    75  HIS75      -0.2718
     73  CB        -4.6030    0.6260  -14.1030 C.3    75  HIS75       0.0759
     74  CG        -5.2170    1.9860  -14.1540 C.ar   75  HIS75       0.0818
     75  ND1       -5.7950    2.5170  -15.2970 N.ar   75  HIS75      -0.2268
     76  CD2       -5.3520    2.9240  -13.1950 C.ar   75  HIS75       0.1154
     77  CE1       -6.2890    3.7080  -14.9950 C.ar   75  HIS75       0.1986
     78  NE2       -6.0000    3.9890  -13.7370 N.ar   75  HIS75      -0.2212
     79  N         -7.3440   -0.8270  -14.7140 N.am   76  LEU76      -0.1980
     80  CA        -8.6820   -0.6360  -15.2050 C.3    76  LEU76       0.1596
     81  C         -9.7070   -1.3720  -14.3390 C.2    76  LEU76       0.2287
     82  O        -10.8640   -1.0230  -14.3410 O.2    76  LEU76      -0.2864
     83  CB        -8.7700   -1.1230  -16.6230 C.3    76  LEU76       0.0297
     84  CG        -7.9230   -0.2740  -17.6010 C.3    76  LEU76       0.0022
     85  CD1       -7.9110   -0.8820  -18.9710 C.3    76  LEU76       0.0001
     86  CD2       -8.3670    1.1540  -17.5710 C.3    76  LEU76       0.0001
     87  N        -11.2510    3.0260  -10.2430 N.3    81  MET81      -0.1245
     88  CA       -11.5980    3.2410  -11.6900 C.3    81  MET81       0.1570
     89  C        -13.0140    2.8220  -12.0150 C.2    81  MET81       0.2261
     90  O        -13.7060    3.5150  -12.7160 O.2    81  MET81      -0.2867
     91  CB       -10.5870    2.6630  -12.6780 C.3    81  MET81       0.0387
     92  CG        -9.1970    3.1850  -12.4820 C.3    81  MET81       0.0595
     93  SD        -8.9990    4.9600  -12.5090 S.3    81  MET81      -0.1393
     94  CE        -9.7190    5.6110  -11.2600 C.3    81  MET81       0.0692
     95  N        -14.9910    5.7090  -10.6260 N.3    84  TYR84      -0.1227
     96  CA       -14.8200    6.8090  -11.5880 C.3    84  TYR84       0.1736
     97  C        -15.7830    6.6170  -12.7640 C.2    84  TYR84       0.2596
     98  O        -16.5470    7.5120  -13.0980 O.2    84  TYR84      -0.2718
     99  CB       -13.3430    6.8960  -12.0340 C.3    84  TYR84       0.0548
    100  CG       -13.2120    7.6650  -13.3450 C.ar   84  TYR84      -0.0200
    101  CD1      -13.0540    9.0570  -13.3490 C.ar   84  TYR84      -0.0009
    102  CD2      -13.2840    7.0020  -14.5550 C.ar   84  TYR84      -0.0009
    103  CE1      -13.0060    9.7710  -14.5960 C.ar   84  TYR84       0.0417
    104  CE2      -13.2300    7.7220  -15.7870 C.ar   84  TYR84       0.0417
    105  CZ       -13.1030    9.0860  -15.7670 C.ar   84  TYR84       0.1957
    106  OH       -13.0500    9.7900  -16.9690 O.3    84  TYR84      -0.2866
    107  N        -15.7880    5.4430  -13.3570 N.am   85  SER85      -0.1952
    108  CA       -16.5970    5.1770  -14.5490 C.3    85  SER85       0.1924
    109  C        -18.0750    5.3500  -14.2760 C.2    85  SER85       0.2314
    110  O        -18.8180    5.9440  -15.0600 O.2    85  SER85      -0.2863
    111  CB       -16.3300    3.7950  -15.1080 C.3    85  SER85       0.2116
    112  OG       -15.0130    3.7160  -15.5930 O.3    85  SER85      -0.2180
    113  N        -13.9430    7.6680  -25.6500 N.3    95  MET95      -0.1245
    114  CA       -12.4860    7.7600  -25.4030 C.3    95  MET95       0.1570
    115  C        -11.6880    7.2440  -26.5900 C.2    95  MET95       0.2261
    116  O        -12.1100    6.2720  -27.2930 O.2    95  MET95      -0.2867
    117  CB       -12.1050    6.9370  -24.2250 C.3    95  MET95       0.0387
    118  CG       -12.6970    7.4020  -22.9510 C.3    95  MET95       0.0595
    119  SD       -12.0560    6.5640  -21.5080 S.3    95  MET95      -0.1393
    120  CE       -13.0400    5.0200  -21.5930 C.3    95  MET95       0.0692
    121  N         -7.8780    5.8920  -27.1960 N.3    97  ILE97      -0.1245
    122  CA        -6.7490    5.4980  -26.3370 C.3    97  ILE97       0.1561
    123  C         -5.6220    4.9600  -27.1750 C.2    97  ILE97       0.2260
    124  O         -5.7800    3.9570  -27.8830 O.2    97  ILE97      -0.2867
    125  CB        -7.1920    4.4520  -25.3630 C.3    97  ILE97       0.0252
    126  CG1       -8.2780    5.0300  -24.4490 C.3    97  ILE97       0.0019
    127  CG2       -6.0210    3.9250  -24.4810 C.3    97  ILE97       0.0019
    128  CD1       -9.1880    3.9960  -23.9800 C.3    97  ILE97       0.0001
@<TRIPOS>BOND
     1   124   123    2
     2   116   115    2
     3   121   122    1
     4   123   122    1
     5   115   114    1
     6   122   125    1
     7   113   114    1
     8   114   117    1
     9   125   127    1
    10   125   126    1
    11   126   128    1
    12   117   118    1
    13    10     9    1
    14    10    11    2
    15     9     8    1
    16     9    12    1
    17    15    16    2
    18    15    14    1
    19    13    14    1
    20    14    17    1
    21     3     2    1
    22     3     4    2
    23   118   119    1
    24     2     1    1
    25     2     5    1
    26     6     5    1
    27    47    46    2
    28     5     7    1
    29    17    18    1
    30    17    19    1
    31   120   119    1
    32    44    45    1
    33    18    20    1
    34    46    45    1
    35    68    66    1
    36    45    48    1
    37    55    54    2
    38    48    49    1
    39    52    53    1
    40    66    65    1
    41    66    67    1
    42    49    50    1
    43    85    84    1
    44    60    58   ar
    45    54    53    1
    46    57    58    1
    47    57    56    1
    48    65    62    1
    49    58    59   ar
    50    53    56    1
    51    50    51    1
    52    84    86    1
    53    84    83    1
    54    62    63    1
    55    62    61    1
    56    63    64    2
    57   106   105    1
    58    83    80    1
    59    30    31   ar
    60    30    28   ar
    61    31    29   ar
    62   104   105   ar
    63   104   102   ar
    64   105   103   ar
    65   112   111    1
    66    75    77   ar
    67    75    74   ar
    68    40    38   ar
    69    40    42   ar
    70    80    79    1
    71    80    81    1
    72    28    26   ar
    73    29    27   ar
    74   111   108    1
    75   110   109    2
    76    77    78   ar
    77    38    37   ar
    78    43    42    1
    79    79    71   am
    80    33    32    1
    81    33    34    1
    82    33    36    1
    83   103   101   ar
    84   102   100   ar
    85   108   109    1
    86   108   107    1
    87    42    41   ar
    88    34    35    2
    89    82    81    2
    90    74    73    1
    91    74    76   ar
    92    26    27   ar
    93    26    25    1
    94    73    70    1
    95    37    36    1
    96    37    39   ar
    97    78    76   ar
    98    41    39   ar
    99    71    70    1
   100    71    72    2
   101    69    70    1
   102   107    97   am
   103   101   100   ar
   104   100    99    1
   105    98    97    2
   106    25    22    1
   107    97    96    1
   108    90    89    2
   109    91    92    1
   110    91    88    1
   111    93    92    1
   112    93    94    1
   113    99    96    1
   114    89    88    1
   115    88    87    1
   116    22    21    1
   117    22    23    1
   118    96    95    1
   119    23    24    2
