@<TRIPOS>MOLECULE
tmp/1tv3A00.pdb
 103 92 0 0 0
SMALL
GASTEIGER

@<TRIPOS>ATOM
      1  N         26.5210   95.8520   87.4610 N.3   130  THR130     -0.1203
      2  CA        26.6850   94.5530   86.8230 C.3   130  THR130      0.1994
      3  C         27.7160   93.6760   87.5420 C.2   130  THR130      0.2618
      4  O         28.6880   93.2130   86.9420 O.2   130  THR130     -0.2717
      5  CB        27.0920   94.7500   85.3430 C.3   130  THR130      0.1784
      6  OG1       26.2620   95.7640   84.7590 O.3   130  THR130     -0.2211
      7  CG2       26.9040   93.4670   84.5490 C.3   130  THR130      0.0376
      8  N         27.4960   93.4670   88.8380 N.am  131  GLY131     -0.1956
      9  CA        28.3810   92.6290   89.6290 C.3   131  GLY131      0.1869
     10  C         29.7410   93.1890   90.0000 C.2   131  GLY131      0.2309
     11  O         30.5430   92.4950   90.6240 O.2   131  GLY131     -0.2863
     12  N         20.6910   95.7490   87.8130 N.3   156  VAL156     -0.1245
     13  CA        21.5240   94.5610   87.9850 C.3   156  VAL156      0.1561
     14  C         22.4840   94.9760   89.1020 C.2   156  VAL156      0.2260
     15  O         23.2960   95.8930   88.9410 O.2   156  VAL156     -0.2867
     16  CB        22.3170   94.1450   86.7120 C.3   156  VAL156      0.0252
     17  CG1       22.9980   95.3380   86.0630 C.3   156  VAL156      0.0019
     18  CG2       23.3520   93.0880   87.1030 C.3   156  VAL156      0.0019
     19  N         18.3310   92.2450   89.9240 N.3   201  LYS201     -0.1245
     20  CA        18.8960   90.9640   89.5350 C.3   201  LYS201      0.1561
     21  C         20.0850   90.7080   90.4470 C.2   201  LYS201      0.2260
     22  O         20.9910   91.5350   90.5470 O.2   201  LYS201     -0.2867
     23  CB        19.3360   90.9810   88.0640 C.3   201  LYS201      0.0271
     24  CG        19.7420   89.6080   87.5370 C.3   201  LYS201      0.0035
     25  CD        21.2510   89.3750   87.5910 C.3   201  LYS201      0.0206
     26  CE        21.9270   89.9000   86.3180 C.3   201  LYS201      0.1093
     27  NZ        23.3640   89.5050   86.2040 N.3   201  LYS201     -0.1314
     28  N         24.3470   89.2680   94.2240 N.3   204  GLU204     -0.1245
     29  CA        25.7090   89.2660   93.7070 C.3   204  GLU204      0.1567
     30  C         26.8600   89.1710   94.7020 C.2   204  GLU204      0.2260
     31  O         27.8620   88.5130   94.4240 O.2   204  GLU204     -0.2867
     32  CB        25.9170   90.4990   92.8250 C.3   204  GLU204      0.0388
     33  CG        24.9410   90.6120   91.6560 C.3   204  GLU204      0.1160
     34  CD        24.9050   89.3640   90.7910 C.2   204  GLU204      0.3649
     35  OE1       25.9580   88.7030   90.6410 O.co2 204  GLU204     -0.2457
     36  OE2       23.8240   89.0520   90.2470 O.co2 204  GLU204     -0.2457
     37  N         19.7740   84.8690   90.2020 N.3   228  GLU228     -0.1245
     38  CA        20.8980   84.3210   89.4690 C.3   228  GLU228      0.1567
     39  C         21.4790   82.9980   89.9310 C.2   228  GLU228      0.2260
     40  O         21.5500   82.7070   91.1220 O.2   228  GLU228     -0.2867
     41  CB        22.0270   85.3600   89.4120 C.3   228  GLU228      0.0388
     42  CG        22.7850   85.5830   90.7310 C.3   228  GLU228      0.1160
     43  CD        23.7820   84.4670   91.0560 C.2   228  GLU228      0.3649
     44  OE1       24.3030   83.8320   90.1080 O.co2 228  GLU228     -0.2457
     45  OE2       24.0610   84.2350   92.2560 O.co2 228  GLU228     -0.2457
     46  N         24.7250   80.4360   88.1850 N.3   230  SER230     -0.1217
     47  CA        25.7050   80.3690   87.1060 C.3   230  SER230      0.1889
     48  C         26.1980   79.0010   86.6800 C.2   230  SER230      0.2288
     49  O         26.5990   78.1860   87.5120 O.2   230  SER230     -0.2866
     50  CB        26.9360   81.2040   87.4760 C.3   230  SER230      0.2089
     51  OG        26.5860   82.5400   87.7800 O.3   230  SER230     -0.2183
     52  N         17.0770   83.3150   86.6910 N.3   256  MET256     -0.1245
     53  CA        17.9530   83.7070   85.5980 C.3   256  MET256      0.1570
     54  C         19.1960   82.8290   85.6270 C.2   256  MET256      0.2261
     55  O         20.0160   82.9260   86.5430 O.2   256  MET256     -0.2867
     56  CB        18.4010   85.1670   85.7070 C.3   256  MET256      0.0387
     57  CG        19.3640   85.5440   84.5760 C.3   256  MET256      0.0595
     58  SD        20.4520   86.9400   84.9190 S.3   256  MET256     -0.1393
     59  CE        21.6920   86.1350   85.9310 C.3   256  MET256      0.0692
     60  N         22.7410   81.8570   84.0770 N.3   258  GLU258     -0.1245
     61  CA        23.7900   82.5020   83.2920 C.3   258  GLU258      0.1567
     62  C         24.8800   81.5180   82.8620 C.2   258  GLU258      0.2260
     63  O         25.0960   80.4880   83.5020 O.2   258  GLU258     -0.2867
     64  CB        24.4690   83.6170   84.0960 C.3   258  GLU258      0.0388
     65  CG        25.9490   83.3260   84.3190 C.3   258  GLU258      0.1160
     66  CD        26.7330   84.4890   84.8560 C.2   258  GLU258      0.3649
     67  OE1       26.7110   85.5690   84.2310 O.co2 258  GLU258     -0.2457
     68  OE2       27.3860   84.3120   85.9040 O.co2 258  GLU258     -0.2457
     69  N         20.9140   84.2550   80.7330 N.3   294  LEU294     -0.1245
     70  CA        21.8320   85.3640   80.5100 C.3   294  LEU294      0.1561
     71  C         23.1210   84.8350   79.8670 C.2   294  LEU294      0.2260
     72  O         23.8060   83.9860   80.4410 O.2   294  LEU294     -0.2867
     73  CB        22.1740   86.0440   81.8360 C.3   294  LEU294      0.0270
     74  CG        23.1660   87.2080   81.7160 C.3   294  LEU294      0.0019
     75  CD1       22.5110   88.3880   81.0030 C.3   294  LEU294      0.0001
     76  CD2       23.6320   87.6160   83.0970 C.3   294  LEU294      0.0001
     77  N         25.2060   90.0540   78.9660 N.3   332  GLN332     -0.1245
     78  CA        25.8640   90.9620   79.9060 C.3   332  GLN332      0.1566
     79  C         27.0210   91.7170   79.2550 C.2   332  GLN332      0.2260
     80  O         27.6720   91.2100   78.3440 O.2   332  GLN332     -0.2867
     81  CB        26.3380   90.1930   81.1440 C.3   332  GLN332      0.0367
     82  CG        27.2670   89.0390   80.8490 C.3   332  GLN332      0.0905
     83  CD        27.3660   88.0790   82.0160 C.2   332  GLN332      0.2608
     84  OE1       27.9090   88.4130   83.0680 O.2   332  GLN332     -0.2717
     85  NE2       26.8260   86.8790   81.8370 N.am  332  GLN332     -0.0878
     86  N         30.6890   93.5640   79.3280 N.3   334  TYR334     -0.1241
     87  CA        32.0230   93.6940   79.9090 C.3   334  TYR334      0.1605
     88  C         32.9870   94.3840   78.9390 C.2   334  TYR334      0.2264
     89  O         33.7020   93.7230   78.1830 O.2   334  TYR334     -0.2867
     90  CB        32.5980   92.3250   80.2830 C.3   334  TYR334      0.0534
     91  CG        32.1560   91.7940   81.6290 C.ar  334  TYR334     -0.0201
     92  CD1       30.9410   91.1160   81.7790 C.ar  334  TYR334     -0.0009
     93  CD2       32.9640   91.9580   82.7550 C.ar  334  TYR334     -0.0009
     94  CE1       30.5440   90.6120   83.0210 C.ar  334  TYR334      0.0417
     95  CE2       32.5790   91.4630   83.9960 C.ar  334  TYR334      0.0417
     96  CZ        31.3710   90.7900   84.1220 C.ar  334  TYR334      0.1957
     97  OH        31.0040   90.2960   85.3520 O.3   334  TYR334     -0.2866
     98  N         21.8240   93.5480   80.0040 N.3   364  SER364     -0.1217
     99  CA        22.2610   93.7290   81.3850 C.3   364  SER364      0.1889
    100  C         23.6940   94.2690   81.4550 C.2   364  SER364      0.2288
    101  O         24.6580   93.5270   81.2350 O.2   364  SER364     -0.2866
    102  CB        22.1560   92.3860   82.1180 C.3   364  SER364      0.2089
    103  OG        22.1920   92.5450   83.5230 O.3   364  SER364     -0.2183
@<TRIPOS>BOND
     1    89    88    2
     2    80    79    2
     3    88    87    1
     4    77    78    1
     5    79    78    1
     6    86    87    1
     7    71    72    2
     8    71    70    1
     9    78    81    1
    10    87    90    1
    11    98    99    1
    12    90    91    1
    13    70    69    1
    14    70    73    1
    15    82    81    1
    16    82    83    1
    17    75    74    1
    18   101   100    2
    19    99   100    1
    20    99   102    1
    21    91    92   ar
    22    91    93   ar
    23    74    73    1
    24    74    76    1
    25    92    94   ar
    26    85    83   am
    27    83    84    2
    28   102   103    1
    29    93    95   ar
    30    62    61    1
    31    62    63    2
    32    94    96   ar
    33    61    60    1
    34    61    64    1
    35    95    96   ar
    36    64    65    1
    37    96    97    1
    38    67    66   ar
    39    65    66    1
    40     7     5    1
    41    57    58    1
    42    57    56    1
    43     6     5    1
    44    66    68   ar
    45    58    59    1
    46     5     2    1
    47    53    54    1
    48    53    56    1
    49    53    52    1
    50    54    55    2
    51    17    16    1
    52    27    26    1
    53    26    25    1
    54    48    47    1
    55    48    49    2
    56    16    18    1
    57    16    13    1
    58     2     1    1
    59     2     3    1
    60     4     3    2
    61    47    50    1
    62    47    46    1
    63    50    51    1
    64    24    25    1
    65    24    23    1
    66     3     8   am
    67    12    13    1
    68    13    14    1
    69    23    20    1
    70     8     9    1
    71    15    14    2
    72    41    38    1
    73    41    42    1
    74    38    39    1
    75    38    37    1
    76    20    19    1
    77    20    21    1
    78     9    10    1
    79    39    40    2
    80    10    11    2
    81    44    43   ar
    82    36    34   ar
    83    21    22    2
    84    35    34   ar
    85    42    43    1
    86    34    33    1
    87    43    45   ar
    88    33    32    1
    89    32    29    1
    90    29    28    1
    91    29    30    1
    92    31    30    2
