@<TRIPOS>MOLECULE
tmp/1tv4A00.pdb
 103 92 0 0 0
SMALL
GASTEIGER

@<TRIPOS>ATOM
      1  N         26.5860   96.2630   87.1200 N.3   130  THR130     -0.1203
      2  CA        26.7700   94.9570   86.5120 C.3   130  THR130      0.1994
      3  C         27.8100   94.1020   87.2470 C.2   130  THR130      0.2618
      4  O         28.7720   93.5990   86.6530 O.2   130  THR130     -0.2717
      5  CB        27.1540   95.1480   85.0290 C.3   130  THR130      0.1784
      6  OG1       26.2260   96.0530   84.4240 O.3   130  THR130     -0.2211
      7  CG2       27.0870   93.8610   84.2740 C.3   130  THR130      0.0376
      8  N         27.6050   93.9530   88.5540 N.am  131  GLY131     -0.1956
      9  CA        28.4880   93.1370   89.3720 C.3   131  GLY131      0.1869
     10  C         29.8440   93.7140   89.7220 C.2   131  GLY131      0.2309
     11  O         30.6530   93.0450   90.3680 O.2   131  GLY131     -0.2863
     12  N         20.7010   96.1720   87.4090 N.3   156  VAL156     -0.1245
     13  CA        21.5300   94.9820   87.5860 C.3   156  VAL156      0.1561
     14  C         22.4980   95.4060   88.6920 C.2   156  VAL156      0.2260
     15  O         23.2770   96.3520   88.5370 O.2   156  VAL156     -0.2867
     16  CB        22.2940   94.5600   86.2980 C.3   156  VAL156      0.0252
     17  CG1       23.0230   95.7400   85.6810 C.3   156  VAL156      0.0019
     18  CG2       23.2730   93.4440   86.6420 C.3   156  VAL156      0.0019
     19  N         18.2830   92.6840   89.4370 N.3   201  LYS201     -0.1245
     20  CA        18.8460   91.3930   89.0610 C.3   201  LYS201      0.1561
     21  C         20.0150   91.1340   89.9970 C.2   201  LYS201      0.2260
     22  O         20.9020   91.9760   90.1390 O.2   201  LYS201     -0.2867
     23  CB        19.3230   91.3950   87.6000 C.3   201  LYS201      0.0271
     24  CG        19.7420   90.0130   87.0880 C.3   201  LYS201      0.0035
     25  CD        21.2470   89.7490   87.2400 C.3   201  LYS201      0.0206
     26  CE        22.0110   90.1550   85.9770 C.3   201  LYS201      0.1093
     27  NZ        23.4530   89.7520   86.0290 N.3   201  LYS201     -0.1314
     28  N         24.4270   89.5640   93.8690 N.3   204  GLU204     -0.1245
     29  CA        25.7650   89.6540   93.2900 C.3   204  GLU204      0.1567
     30  C         26.9360   89.6340   94.2680 C.2   204  GLU204      0.2260
     31  O         27.9920   89.0740   93.9590 O.2   204  GLU204     -0.2867
     32  CB        25.8690   90.9180   92.4310 C.3   204  GLU204      0.0388
     33  CG        24.8680   90.9950   91.2760 C.3   204  GLU204      0.1160
     34  CD        24.9040   89.7620   90.3970 C.2   204  GLU204      0.3649
     35  OE1       26.0040   89.1930   90.2250 O.co2 204  GLU204     -0.2457
     36  OE2       23.8400   89.3660   89.8690 O.co2 204  GLU204     -0.2457
     37  N         19.6810   85.2420   89.6640 N.3   228  GLU228     -0.1245
     38  CA        20.8020   84.6900   88.9220 C.3   228  GLU228      0.1567
     39  C         21.3980   83.3780   89.4200 C.2   228  GLU228      0.2260
     40  O         21.6230   83.1870   90.6140 O.2   228  GLU228     -0.2867
     41  CB        21.8980   85.7550   88.8370 C.3   228  GLU228      0.0388
     42  CG        23.1540   85.3270   88.1080 C.3   228  GLU228      0.1160
     43  CD        23.8860   86.5070   87.4930 C.2   228  GLU228      0.3649
     44  OE1       23.9430   87.5770   88.1400 O.co2 228  GLU228     -0.2457
     45  OE2       24.4070   86.3630   86.3630 O.co2 228  GLU228     -0.2457
     46  N         24.5240   80.7550   87.9410 N.3   230  SER230     -0.1217
     47  CA        25.5550   80.6970   86.9100 C.3   230  SER230      0.1889
     48  C         26.0330   79.3270   86.4700 C.2   230  SER230      0.2288
     49  O         26.3630   78.4770   87.2950 O.2   230  SER230     -0.2866
     50  CB        26.7790   81.5010   87.3520 C.3   230  SER230      0.2089
     51  OG        26.5040   82.8860   87.3680 O.3   230  SER230     -0.2183
     52  N         22.6220   82.1360   83.6850 N.3   258  GLU258     -0.1245
     53  CA        23.6790   82.8350   82.9490 C.3   258  GLU258      0.1567
     54  C         24.8280   81.9040   82.5730 C.2   258  GLU258      0.2260
     55  O         25.1200   80.9470   83.2840 O.2   258  GLU258     -0.2867
     56  CB        24.2210   83.9950   83.8010 C.3   258  GLU258      0.0388
     57  CG        25.3960   84.8000   83.2070 C.3   258  GLU258      0.1160
     58  CD        26.7600   84.1370   83.4140 C.2   258  GLU258      0.3649
     59  OE1       26.9710   83.5310   84.4870 O.co2 258  GLU258     -0.2457
     60  OE2       27.6270   84.2380   82.5170 O.co2 258  GLU258     -0.2457
     61  N         28.6930   82.4130   80.2500 N.3   260  MET260     -0.1245
     62  CA        29.5230   83.2780   79.4270 C.3   260  MET260      0.1570
     63  C         30.5870   82.4470   78.7150 C.2   260  MET260      0.2261
     64  O         31.6950   82.2650   79.2230 O.2   260  MET260     -0.2867
     65  CB        30.1590   84.3670   80.3000 C.3   260  MET260      0.0387
     66  CG        30.8020   83.8670   81.5850 C.3   260  MET260      0.0595
     67  SD        31.2610   85.2190   82.7100 S.3   260  MET260     -0.1393
     68  CE        32.6800   85.9070   81.8750 C.3   260  MET260      0.0692
     69  N         20.9070   84.6350   80.3470 N.3   294  LEU294     -0.1245
     70  CA        21.8240   85.7440   80.1260 C.3   294  LEU294      0.1561
     71  C         23.1230   85.2230   79.5130 C.2   294  LEU294      0.2260
     72  O         23.8250   84.4100   80.1190 O.2   294  LEU294     -0.2867
     73  CB        22.1350   86.4470   81.4490 C.3   294  LEU294      0.0270
     74  CG        23.0810   87.6480   81.3280 C.3   294  LEU294      0.0019
     75  CD1       22.4000   88.7770   80.5540 C.3   294  LEU294      0.0001
     76  CD2       23.4690   88.1120   82.7110 C.3   294  LEU294      0.0001
     77  N         25.2020   90.3940   78.5780 N.3   332  GLN332     -0.1245
     78  CA        25.8530   91.2690   79.5500 C.3   332  GLN332      0.1566
     79  C         27.0280   92.0200   78.9270 C.2   332  GLN332      0.2260
     80  O         27.7260   91.4920   78.0640 O.2   332  GLN332     -0.2867
     81  CB        26.3030   90.4590   80.7720 C.3   332  GLN332      0.0367
     82  CG        27.3580   89.4050   80.5000 C.3   332  GLN332      0.0905
     83  CD        27.5510   88.4660   81.6780 C.2   332  GLN332      0.2608
     84  OE1       28.4910   87.6710   81.7090 O.2   332  GLN332     -0.2717
     85  NE2       26.6550   88.5480   82.6530 N.am  332  GLN332     -0.0878
     86  N         30.6980   93.9490   78.9790 N.3   334  TYR334     -0.1241
     87  CA        32.0240   94.0830   79.5720 C.3   334  TYR334      0.1605
     88  C         33.0150   94.7880   78.6460 C.2   334  TYR334      0.2264
     89  O         33.7800   94.1360   77.9350 O.2   334  TYR334     -0.2867
     90  CB        32.6050   92.7170   79.9310 C.3   334  TYR334      0.0534
     91  CG        32.1260   92.1500   81.2410 C.ar  334  TYR334     -0.0201
     92  CD1       30.9140   91.4640   81.3300 C.ar  334  TYR334     -0.0009
     93  CD2       32.9040   92.2710   82.3910 C.ar  334  TYR334     -0.0009
     94  CE1       30.4970   90.9050   82.5330 C.ar  334  TYR334      0.0417
     95  CE2       32.4980   91.7190   83.5940 C.ar  334  TYR334      0.0417
     96  CZ        31.2960   91.0340   83.6590 C.ar  334  TYR334      0.1957
     97  OH        30.9210   90.4540   84.8470 O.3   334  TYR334     -0.2866
     98  N         21.8750   93.8750   79.6440 N.3   364  SER364     -0.1217
     99  CA        22.3340   94.0420   81.0230 C.3   364  SER364      0.1889
    100  C         23.7530   94.6130   81.0760 C.2   364  SER364      0.2288
    101  O         24.7290   93.8940   80.8480 O.2   364  SER364     -0.2866
    102  CB        22.2820   92.6910   81.7470 C.3   364  SER364      0.2089
    103  OG        22.3770   92.8410   83.1540 O.3   364  SER364     -0.2183
@<TRIPOS>BOND
     1    89    88    2
     2    80    79    2
     3    77    78    1
     4    88    87    1
     5    63    64    2
     6    63    62    1
     7    79    78    1
     8    86    87    1
     9    62    61    1
    10    62    65    1
    11    71    72    2
    12    71    70    1
    13    78    81    1
    14    87    90    1
    15    98    99    1
    16    90    91    1
    17    70    69    1
    18    70    73    1
    19    65    66    1
    20    82    81    1
    21    82    83    1
    22    75    74    1
    23   101   100    2
    24    99   100    1
    25    99   102    1
    26    91    92   ar
    27    91    93   ar
    28    74    73    1
    29    74    76    1
    30    92    94   ar
    31    66    67    1
    32    83    84    2
    33    83    85   am
    34   102   103    1
    35    68    67    1
    36    93    95   ar
    37    60    58   ar
    38    94    96   ar
    39    54    53    1
    40    54    55    2
    41    53    52    1
    42    53    56    1
    43    57    58    1
    44    57    56    1
    45    58    59   ar
    46    95    96   ar
    47    96    97    1
    48     7     5    1
    49     6     5    1
    50     5     2    1
    51    17    16    1
    52    26    27    1
    53    26    25    1
    54    16    18    1
    55    16    13    1
    56    45    43   ar
    57    48    47    1
    58    48    49    2
    59     2     1    1
    60     2     3    1
    61     4     3    2
    62    47    50    1
    63    47    46    1
    64    24    25    1
    65    24    23    1
    66     3     8   am
    67    50    51    1
    68    12    13    1
    69    43    42    1
    70    43    44   ar
    71    13    14    1
    72    23    20    1
    73    42    41    1
    74    15    14    2
    75     8     9    1
    76    41    38    1
    77    38    39    1
    78    38    37    1
    79    20    19    1
    80    20    21    1
    81     9    10    1
    82    39    40    2
    83    10    11    2
    84    36    34   ar
    85    21    22    2
    86    35    34   ar
    87    34    33    1
    88    33    32    1
    89    32    29    1
    90    29    28    1
    91    29    30    1
    92    31    30    2
