@<TRIPOS>MOLECULE
tmp/1tv5A00.pdb
 153 147 0 0 0
SMALL
GASTEIGER

@<TRIPOS>ATOM
      1  N         41.6120   24.6170   43.5080 N.3    11  TYR11      -0.1241
      2  CA        41.1110   25.6250   42.5800 C.3    11  TYR11       0.1605
      3  C         40.3170   26.7040   43.2890 C.2    11  TYR11       0.2264
      4  O         40.1980   27.8160   42.7870 O.2    11  TYR11      -0.2867
      5  CB        40.2770   24.9730   41.4820 C.3    11  TYR11       0.0534
      6  CG        41.0790   23.9750   40.6760 C.ar   11  TYR11      -0.0201
      7  CD1       42.2660   24.3570   40.0330 C.ar   11  TYR11      -0.0009
      8  CD2       40.6740   22.6490   40.5710 C.ar   11  TYR11      -0.0009
      9  CE1       43.0240   23.4360   39.3050 C.ar   11  TYR11       0.0417
     10  CE2       41.4290   21.7180   39.8510 C.ar   11  TYR11       0.0417
     11  CZ        42.5970   22.1190   39.2200 C.ar   11  TYR11       0.1957
     12  OH        43.3180   21.1990   38.4940 O.3    11  TYR11      -0.2866
     13  N         42.8090   29.0790   44.6460 N.3    14  PHE14      -0.1227
     14  CA        43.1820   29.9350   43.5280 C.3    14  PHE14       0.1736
     15  C         42.0750   30.9720   43.3290 C.2    14  PHE14       0.2595
     16  O         42.3420   32.1660   43.2410 O.2    14  PHE14      -0.2718
     17  CB        43.3420   29.1030   42.2560 C.3    14  PHE14       0.0547
     18  CG        43.8270   29.8910   41.0780 C.ar   14  PHE14      -0.0202
     19  CD1       45.0660   30.5300   41.1120 C.ar   14  PHE14      -0.0042
     20  CD2       43.0550   29.9870   39.9210 C.ar   14  PHE14      -0.0042
     21  CE1       45.5320   31.2530   40.0060 C.ar   14  PHE14      -0.0003
     22  CE2       43.5120   30.7060   38.8120 C.ar   14  PHE14      -0.0003
     23  CZ        44.7550   31.3390   38.8560 C.ar   14  PHE14      -0.0000
     24  N         40.8290   30.5110   43.2720 N.am   15  LEU15      -0.1980
     25  CA        39.6980   31.4140   43.0980 C.3    15  LEU15       0.1596
     26  C         39.7160   32.5400   44.1410 C.2    15  LEU15       0.2287
     27  O         39.5580   33.7050   43.7880 O.2    15  LEU15      -0.2864
     28  CB        38.3710   30.6380   43.1790 C.3    15  LEU15       0.0297
     29  CG        37.0760   31.4720   43.1720 C.3    15  LEU15       0.0022
     30  CD1       36.9360   32.1990   41.8480 C.3    15  LEU15       0.0001
     31  CD2       35.8650   30.5630   43.3910 C.3    15  LEU15       0.0001
     32  N         42.6600   35.0480   43.3490 N.3    18  CYS18      -0.1221
     33  CA        42.3730   35.9250   42.2160 C.3    18  CYS18       0.1808
     34  C         41.2740   36.9500   42.5490 C.2    18  CYS18       0.2601
     35  O         41.4120   38.1280   42.2220 O.2    18  CYS18      -0.2717
     36  CB        42.0360   35.1000   40.9520 C.3    18  CYS18       0.0970
     37  SG        43.4530   34.7990   39.8020 S.3    18  CYS18      -0.0800
     38  N         40.1990   36.5190   43.2090 N.am   19  LEU19      -0.1979
     39  CA        39.1310   37.4400   43.5950 C.3    19  LEU19       0.1596
     40  C         39.6070   38.5030   44.5800 C.2    19  LEU19       0.2287
     41  O         39.2020   39.6600   44.5100 O.2    19  LEU19      -0.2864
     42  CB        37.9660   36.6740   44.2310 C.3    19  LEU19       0.0297
     43  CG        37.0710   35.8310   43.3220 C.3    19  LEU19       0.0022
     44  CD1       35.9440   35.2480   44.1500 C.3    19  LEU19       0.0001
     45  CD2       36.5130   36.6870   42.1900 C.3    19  LEU19       0.0001
     46  N         40.7900   42.2940   37.4970 N.3    24  GLY24      -0.1225
     47  CA        39.8060   41.5470   36.7450 C.3    24  GLY24       0.1811
     48  C         40.2350   40.9940   35.4030 C.2    24  GLY24       0.2280
     49  O         40.2050   39.7740   35.1890 O.2    24  GLY24      -0.2866
     50  N         43.4100   38.4500   35.4540 N.3    27  CYS27      -0.1221
     51  CA        43.2140   37.0240   35.7440 C.3    27  CYS27       0.1808
     52  C         42.4090   36.4070   34.6190 C.2    27  CYS27       0.2601
     53  O         42.6790   35.2760   34.2190 O.2    27  CYS27      -0.2717
     54  CB        42.4990   36.7440   37.0780 C.3    27  CYS27       0.0970
     55  SG        42.6770   34.9820   37.6020 S.3    27  CYS27      -0.0800
     56  N         41.4220   37.1370   34.1010 N.am   28  HIS28      -0.1975
     57  CA        40.6460   36.5790   33.0080 C.3    28  HIS28       0.1656
     58  C         41.5880   36.0810   31.9280 C.2    28  HIS28       0.2291
     59  O         41.4650   34.9520   31.4590 O.2    28  HIS28      -0.2864
     60  CB        39.7050   37.6270   32.4150 C.3    28  HIS28       0.0771
     61  CG        38.8180   37.0870   31.3380 C.ar   28  HIS28       0.0820
     62  ND1       37.7860   36.2100   31.5960 N.ar   28  HIS28      -0.2267
     63  CD2       38.8460   37.2500   29.9940 C.ar   28  HIS28       0.1154
     64  CE1       37.2200   35.8530   30.4570 C.ar   28  HIS28       0.1986
     65  NE2       37.8450   36.4680   29.4700 N.ar   28  HIS28      -0.2212
     66  N         43.5060   33.0920   33.0660 N.3    31  PHE31      -0.1241
     67  CA        42.6360   31.9250   32.9950 C.3    31  PHE31       0.1605
     68  C         42.5750   31.3820   31.5680 C.2    31  PHE31       0.2264
     69  O         42.7060   30.1790   31.3490 O.2    31  PHE31      -0.2867
     70  CB        41.2190   32.2840   33.4580 C.3    31  PHE31       0.0534
     71  CG        40.2580   31.1370   33.3830 C.ar   31  PHE31      -0.0203
     72  CD1       40.3120   30.1060   34.3150 C.ar   31  PHE31      -0.0042
     73  CD2       39.3260   31.0610   32.3540 C.ar   31  PHE31      -0.0042
     74  CE1       39.4480   29.0050   34.2280 C.ar   31  PHE31      -0.0003
     75  CE2       38.4560   29.9630   32.2530 C.ar   31  PHE31      -0.0003
     76  CZ        38.5190   28.9320   33.1970 C.ar   31  PHE31      -0.0000
     77  N         33.4720   35.9590   27.2870 N.3    70  PHE70      -0.1241
     78  CA        34.4080   35.2390   28.1400 C.3    70  PHE70       0.1605
     79  C         35.6150   34.7920   27.3190 C.2    70  PHE70       0.2264
     80  O         36.7600   34.9840   27.7270 O.2    70  PHE70      -0.2867
     81  CB        33.7400   34.0350   28.7860 C.3    70  PHE70       0.0534
     82  CG        34.4530   33.5520   30.0110 C.ar   70  PHE70      -0.0203
     83  CD1       34.2070   34.1380   31.2480 C.ar   70  PHE70      -0.0042
     84  CD2       35.4060   32.5430   29.9240 C.ar   70  PHE70      -0.0042
     85  CE1       34.9000   33.7240   32.3850 C.ar   70  PHE70      -0.0003
     86  CE2       36.1020   32.1260   31.0550 C.ar   70  PHE70      -0.0003
     87  CZ        35.8490   32.7160   32.2840 C.ar   70  PHE70      -0.0000
     88  N         37.3640   46.4580   33.6590 N.3   106  ILE106     -0.1245
     89  CA        36.5790   45.3740   34.2320 C.3   106  ILE106      0.1561
     90  C         36.7850   45.3770   35.7350 C.2   106  ILE106      0.2260
     91  O         37.9110   45.2490   36.2120 O.2   106  ILE106     -0.2867
     92  CB        36.9920   43.9760   33.7120 C.3   106  ILE106      0.0252
     93  CG1       37.0350   43.9430   32.1870 C.3   106  ILE106      0.0019
     94  CG2       35.9690   42.9520   34.1680 C.3   106  ILE106      0.0019
     95  CD1       37.4200   42.5770   31.6270 C.3   106  ILE106      0.0001
     96  N         35.1970   44.0050   39.6940 N.3   108  ARG108     -0.1245
     97  CA        34.3430   43.0890   40.4270 C.3   108  ARG108      0.1563
     98  C         33.9190   43.7280   41.7320 C.2   108  ARG108      0.2260
     99  O         34.6070   44.5920   42.2650 O.2   108  ARG108     -0.2867
    100  CB        35.0840   41.8000   40.7830 C.3   108  ARG108      0.0307
    101  CG        35.6490   41.0200   39.6280 C.3   108  ARG108      0.0489
    102  CD        36.2640   39.7320   40.1460 C.3   108  ARG108      0.2205
    103  NE        37.3510   39.9910   41.0830 N.pl3 108  ARG108     -0.0865
    104  CZ        38.6230   40.1400   40.7330 C.cat 108  ARG108      0.5346
    105  NH1       38.9810   40.0500   39.4620 N.pl3 108  ARG108      0.1354
    106  NH2       39.5380   40.3790   41.6570 N.pl3 108  ARG108      0.1354
    107  N         29.6720   42.5800   38.3640 N.3   115  ILE115     -0.1245
    108  CA        30.7970   42.9830   37.5490 C.3   115  ILE115      0.1561
    109  C         30.3310   44.1450   36.7010 C.2   115  ILE115      0.2260
    110  O         29.1380   44.2740   36.3860 O.2   115  ILE115     -0.2867
    111  CB        31.2460   41.8490   36.5930 C.3   115  ILE115      0.0252
    112  CG1       31.5650   40.5820   37.3930 C.3   115  ILE115      0.0019
    113  CG2       32.4520   42.3050   35.7740 C.3   115  ILE115      0.0019
    114  CD1       31.8770   39.3690   36.5320 C.3   115  ILE115      0.0001
    115  N         28.5590   33.7160   32.9470 N.3   333  TYR333     -0.1241
    116  CA        29.7520   34.5270   32.8110 C.3   333  TYR333      0.1605
    117  C         30.1950   34.8220   34.2360 C.2   333  TYR333      0.2264
    118  O         31.1540   34.2270   34.7280 O.2   333  TYR333     -0.2867
    119  CB        29.5080   35.8320   32.0430 C.3   333  TYR333      0.0534
    120  CG        30.8180   36.5400   31.7180 C.ar  333  TYR333     -0.0201
    121  CD1       31.2210   36.7480   30.4000 C.ar  333  TYR333     -0.0009
    122  CD2       31.6880   36.9340   32.7380 C.ar  333  TYR333     -0.0009
    123  CE1       32.4580   37.3230   30.1050 C.ar  333  TYR333      0.0417
    124  CE2       32.9240   37.5050   32.4540 C.ar  333  TYR333      0.0417
    125  CZ        33.3060   37.6940   31.1380 C.ar  333  TYR333      0.1957
    126  OH        34.5480   38.2400   30.8690 O.3   333  TYR333     -0.2866
    127  N         31.2160   32.0430   36.5550 N.3   336  LEU336     -0.1231
    128  CA        32.5520   31.5300   36.2950 C.3   336  LEU336      0.1693
    129  C         33.5670   32.4100   37.0330 C.2   336  LEU336      0.2591
    130  O         34.5580   31.9230   37.5810 O.2   336  LEU336     -0.2718
    131  CB        32.7950   31.5550   34.7880 C.3   336  LEU336      0.0284
    132  CG        33.6020   30.4590   34.1030 C.3   336  LEU336      0.0019
    133  CD1       33.3410   29.1020   34.7320 C.3   336  LEU336      0.0001
    134  CD2       33.2270   30.4550   32.6290 C.3   336  LEU336      0.0001
    135  N         33.2980   33.7090   37.0670 N.am  337  VAL337     -0.1980
    136  CA        34.1900   34.6470   37.7420 C.3   337  VAL337      0.1595
    137  C         34.1950   34.4730   39.2590 C.2   337  VAL337      0.2287
    138  O         35.2560   34.5060   39.8830 O.2   337  VAL337     -0.2864
    139  CB        33.7950   36.1160   37.4450 C.3   337  VAL337      0.0276
    140  CG1       34.6300   37.0620   38.2940 C.3   337  VAL337      0.0022
    141  CG2       33.9770   36.4150   35.9640 C.3   337  VAL337      0.0022
    142  N         34.3330   30.1930   40.0430 N.3   340  GLY340     -0.1210
    143  CA        35.4960   29.5490   39.4750 C.3   340  GLY340      0.1956
    144  C         35.2870   28.3670   38.5590 C.2   340  GLY340      0.2611
    145  O         34.2400   28.1800   37.9490 O.2   340  GLY340     -0.2717
    146  N         36.3170   27.5470   38.4780 N.am  341  MET341     -0.1979
    147  CA        36.3040   26.3920   37.6160 C.3   341  MET341      0.1605
    148  C         35.2190   25.3610   37.8990 C.2   341  MET341      0.2287
    149  O         34.7890   24.6560   36.9900 O.2   341  MET341     -0.2864
    150  CB        37.6950   25.7640   37.6440 C.3   341  MET341      0.0413
    151  CG        38.7530   26.7360   37.1000 C.3   341  MET341      0.0598
    152  SD        40.4210   26.1060   37.1280 S.3   341  MET341     -0.1393
    153  CE        41.2970   27.4000   37.9390 C.3   341  MET341      0.0692
@<TRIPOS>BOND
     1    77    78    1
     2    79    80    2
     3    79    78    1
     4    78    81    1
     5    81    82    1
     6    65    63   ar
     7    65    64   ar
     8    84    82   ar
     9    84    86   ar
    10    63    61   ar
    11    82    83   ar
    12   123   121   ar
    13   123   125   ar
    14   121   120   ar
    15    64    62   ar
    16   126   125    1
    17    86    87   ar
    18   125   124   ar
    19    83    85   ar
    20    61    62   ar
    21    61    60    1
    22    69    68    2
    23    59    58    2
    24    68    67    1
    25    95    93    1
    26   120   119    1
    27   120   122   ar
    28    58    57    1
    29   119   116    1
    30    93    92    1
    31    75    73   ar
    32    75    76   ar
    33    87    85   ar
    34    73    71   ar
    35    60    57    1
    36   124   122   ar
    37   134   132    1
    38   116   115    1
    39   116   117    1
    40    67    66    1
    41    67    70    1
    42    57    56    1
    43    76    74   ar
    44    71    70    1
    45    71    72   ar
    46    88    89    1
    47    92    94    1
    48    92    89    1
    49    56    52   am
    50   132   133    1
    51   132   131    1
    52    53    52    2
    53    74    72   ar
    54    89    90    1
    55   117   118    2
    56    52    51    1
    57   131   128    1
    58    49    48    2
    59    48    47    1
    60    50    51    1
    61    90    91    2
    62    51    54    1
    63   113   111    1
    64   141   139    1
    65   128   127    1
    66   128   129    1
    67   110   109    2
    68   114   112    1
    69   111   112    1
    70   111   108    1
    71   109   108    1
    72    47    46    1
    73   149   148    2
    74   129   135   am
    75   129   130    2
    76   135   136    1
    77    54    55    1
    78   151   152    1
    79   151   150    1
    80   152   153    1
    81   139   136    1
    82   139   140    1
    83   108   107    1
    84    55    37    1
    85   147   150    1
    86   147   148    1
    87   147   146    1
    88   136   137    1
    89   145   144    2
    90   146   144   am
    91    12    11    1
    92   144   143    1
    93    22    23   ar
    94    22    20   ar
    95    23    21   ar
    96    11     9   ar
    97    11    10   ar
    98   137   138    2
    99     9     7   ar
   100   105   104    1
   101   143   142    1
   102   101   102    1
   103   101   100    1
   104    96    97    1
   105    37    36    1
   106    10     8   ar
   107    20    18   ar
   108    21    19   ar
   109     7     6   ar
   110   102   103    1
   111    97   100    1
   112    97    98    1
   113     8     6   ar
   114     6     5    1
   115   104   103    2
   116   104   106    1
   117    36    33    1
   118    18    19   ar
   119    18    17    1
   120     5     2    1
   121    98    99    2
   122    30    29    1
   123    45    43    1
   124    33    34    1
   125    33    32    1
   126    35    34    2
   127    17    14    1
   128    34    38   am
   129     2     3    1
   130     2     1    1
   131     4     3    2
   132    25    28    1
   133    25    24    1
   134    25    26    1
   135    29    28    1
   136    29    31    1
   137    38    39    1
   138    16    15    2
   139    24    15   am
   140    43    44    1
   141    43    42    1
   142    15    14    1
   143    14    13    1
   144    39    42    1
   145    39    40    1
   146    27    26    2
   147    41    40    2
