@<TRIPOS>MOLECULE
tmp/1tv5A04.pdb
 112 109 0 0 0
SMALL
GASTEIGER

@<TRIPOS>ATOM
      1  N         42.0370   22.9450   45.7170 N.3    10  LEU10      -0.1231
      2  CA        43.1010   23.8310   45.2860 C.3    10  LEU10       0.1693
      3  C         42.6030   24.9270   44.3390 C.2    10  LEU10       0.2592
      4  O         43.1110   26.0450   44.3600 O.2    10  LEU10      -0.2718
      5  CB        44.2010   23.0200   44.6030 C.3    10  LEU10       0.0284
      6  CG        45.5070   23.7660   44.3620 C.3    10  LEU10       0.0019
      7  CD1       46.0350   24.2990   45.6910 C.3    10  LEU10       0.0001
      8  CD2       46.5160   22.8290   43.7190 C.3    10  LEU10       0.0001
      9  N         41.6120   24.6170   43.5080 N.am   11  TYR11      -0.1976
     10  CA        41.1110   25.6250   42.5800 C.3    11  TYR11       0.1639
     11  C         40.3170   26.7040   43.2890 C.2    11  TYR11       0.2290
     12  O         40.1980   27.8160   42.7870 O.2    11  TYR11      -0.2864
     13  CB        40.2770   24.9730   41.4820 C.3    11  TYR11       0.0560
     14  CG        41.0790   23.9750   40.6760 C.ar   11  TYR11      -0.0198
     15  CD1       42.2660   24.3570   40.0330 C.ar   11  TYR11      -0.0009
     16  CD2       40.6740   22.6490   40.5710 C.ar   11  TYR11      -0.0009
     17  CE1       43.0240   23.4360   39.3050 C.ar   11  TYR11       0.0417
     18  CE2       41.4290   21.7180   39.8510 C.ar   11  TYR11       0.0417
     19  CZ        42.5970   22.1190   39.2200 C.ar   11  TYR11       0.1957
     20  OH        43.3180   21.1990   38.4940 O.3    11  TYR11      -0.2866
     21  N         41.1670   27.7410   46.2630 N.3    13  ILE13      -0.1231
     22  CA        42.1740   28.5630   46.9210 C.3    13  ILE13       0.1692
     23  C         42.6050   29.5670   45.8650 C.2    13  ILE13       0.2592
     24  O         42.7200   30.7560   46.1400 O.2    13  ILE13      -0.2718
     25  CB        43.3820   27.7290   47.4010 C.3    13  ILE13       0.0266
     26  CG1       42.9810   26.9420   48.6610 C.3    13  ILE13       0.0019
     27  CG2       44.5680   28.6470   47.7050 C.3    13  ILE13       0.0020
     28  CD1       44.0600   25.9970   49.1840 C.3    13  ILE13       0.0001
     29  N         42.8090   29.0790   44.6460 N.am   14  PHE14      -0.1976
     30  CA        43.1820   29.9350   43.5280 C.3    14  PHE14       0.1639
     31  C         42.0750   30.9720   43.3290 C.2    14  PHE14       0.2290
     32  O         42.3420   32.1660   43.2410 O.2    14  PHE14      -0.2864
     33  CB        43.3420   29.1030   42.2560 C.3    14  PHE14       0.0560
     34  CG        43.8270   29.8910   41.0780 C.ar   14  PHE14      -0.0200
     35  CD1       45.0660   30.5300   41.1120 C.ar   14  PHE14      -0.0042
     36  CD2       43.0550   29.9870   39.9210 C.ar   14  PHE14      -0.0042
     37  CE1       45.5320   31.2530   40.0060 C.ar   14  PHE14      -0.0003
     38  CE2       43.5120   30.7060   38.8120 C.ar   14  PHE14      -0.0003
     39  CZ        44.7550   31.3390   38.8560 C.ar   14  PHE14      -0.0000
     40  N         39.9150   32.1930   45.4110 N.3    16  LYS16      -0.1231
     41  CA        39.9520   33.1830   46.4870 C.3    16  LYS16       0.1693
     42  C         41.0450   34.2140   46.2700 C.2    16  LYS16       0.2592
     43  O         40.8420   35.4120   46.4800 O.2    16  LYS16      -0.2718
     44  CB        40.2150   32.5190   47.8370 C.3    16  LYS16       0.0285
     45  CG        39.0680   31.7350   48.4060 C.3    16  LYS16       0.0035
     46  CD        39.4220   31.2000   49.7950 C.3    16  LYS16       0.0206
     47  CE        38.3220   30.3140   50.3130 C.3    16  LYS16       0.1093
     48  NZ        37.0150   31.0360   50.3260 N.3    16  LYS16      -0.1314
     49  N         42.2170   33.7230   45.8800 N.am   17  PHE17      -0.1976
     50  CA        43.3650   34.5760   45.6350 C.3    17  PHE17       0.1639
     51  C         43.0660   35.5600   44.5100 C.2    17  PHE17       0.2290
     52  O         43.2190   36.7730   44.6760 O.2    17  PHE17      -0.2864
     53  CB        44.5780   33.7240   45.2570 C.3    17  PHE17       0.0560
     54  CG        45.8310   34.5190   45.0470 C.ar   17  PHE17      -0.0200
     55  CD1       46.5440   35.0230   46.1360 C.ar   17  PHE17      -0.0042
     56  CD2       46.2910   34.7860   43.7620 C.ar   17  PHE17      -0.0042
     57  CE1       47.6970   35.7810   45.9480 C.ar   17  PHE17      -0.0003
     58  CE2       47.4420   35.5430   43.5630 C.ar   17  PHE17      -0.0003
     59  CZ        48.1460   36.0420   44.6570 C.ar   17  PHE17      -0.0000
     60  N         40.4680   38.0990   45.5020 N.3    20  LYS20      -0.1231
     61  CA        40.9780   39.0040   46.5180 C.3    20  LYS20       0.1693
     62  C         42.0620   39.9780   46.0590 C.2    20  LYS20       0.2592
     63  O         42.0510   41.1440   46.4580 O.2    20  LYS20      -0.2718
     64  CB        41.5280   38.1910   47.6880 C.3    20  LYS20       0.0285
     65  CG        42.0580   39.0130   48.8440 C.3    20  LYS20       0.0035
     66  CD        40.9340   39.6600   49.6290 C.3    20  LYS20       0.0206
     67  CE        41.4560   40.3000   50.9140 C.3    20  LYS20       0.1093
     68  NZ        42.1370   39.2960   51.7990 N.3    20  LYS20      -0.1314
     69  N         42.9760   39.5130   45.2090 N.am   21  TYR21      -0.1976
     70  CA        44.1050   40.3390   44.7950 C.3    21  TYR21       0.1639
     71  C         44.3210   40.6830   43.3200 C.2    21  TYR21       0.2290
     72  O         44.9250   41.7080   43.0080 O.2    21  TYR21      -0.2864
     73  CB        45.3930   39.6800   45.2950 C.3    21  TYR21       0.0560
     74  CG        45.4440   39.4550   46.7850 C.ar   21  TYR21      -0.0198
     75  CD1       45.6250   40.5240   47.6600 C.ar   21  TYR21      -0.0009
     76  CD2       45.3110   38.1720   47.3240 C.ar   21  TYR21      -0.0009
     77  CE1       45.6730   40.3280   49.0340 C.ar   21  TYR21       0.0417
     78  CE2       45.3560   37.9600   48.7050 C.ar   21  TYR21       0.0417
     79  CZ        45.5390   39.0480   49.5520 C.ar   21  TYR21       0.1957
     80  OH        45.5860   38.8710   50.9130 O.3    21  TYR21      -0.2866
     81  N         45.6440   29.6120   30.7680 N.3    34  LEU34      -0.1245
     82  CA        45.6670   28.2900   31.3840 C.3    34  LEU34       0.1561
     83  C         44.8910   27.3370   30.4720 C.2    34  LEU34       0.2260
     84  O         45.3340   26.2180   30.2060 O.2    34  LEU34      -0.2867
     85  CB        45.0110   28.3230   32.7740 C.3    34  LEU34       0.0270
     86  CG        45.7020   29.1660   33.8530 C.3    34  LEU34       0.0019
     87  CD1       44.9500   29.0370   35.1750 C.3    34  LEU34       0.0001
     88  CD2       47.1560   28.7030   34.0140 C.3    34  LEU34       0.0001
     89  N         45.7870   23.1000   30.6070 N.3    39  ILE39      -0.1231
     90  CA        46.1300   22.6470   31.9470 C.3    39  ILE39       0.1692
     91  C         45.0590   23.0400   32.9670 C.2    39  ILE39       0.2591
     92  O         45.3530   23.3720   34.1120 O.2    39  ILE39      -0.2718
     93  CB        47.5050   23.1800   32.3970 C.3    39  ILE39       0.0266
     94  CG1       47.5550   24.7010   32.2860 C.3    39  ILE39       0.0019
     95  CG2       48.6010   22.5240   31.5680 C.3    39  ILE39       0.0020
     96  CD1       48.9350   25.2890   32.5710 C.3    39  ILE39       0.0001
     97  N         43.8050   23.0010   32.5300 N.am   40  LEU40      -0.1980
     98  CA        42.6880   23.3140   33.4050 C.3    40  LEU40       0.1596
     99  C         42.0260   21.9970   33.7850 C.2    40  LEU40       0.2287
    100  O         42.1350   21.0070   33.0580 O.2    40  LEU40      -0.2864
    101  CB        41.6650   24.2100   32.6930 C.3    40  LEU40       0.0297
    102  CG        41.9850   25.7010   32.5220 C.3    40  LEU40       0.0022
    103  CD1       40.8290   26.3930   31.8220 C.3    40  LEU40       0.0001
    104  CD2       42.2320   26.3420   33.8840 C.3    40  LEU40       0.0001
    105  N         36.3170   27.5470   38.4780 N.3   341  MET341     -0.1245
    106  CA        36.3040   26.3920   37.6160 C.3   341  MET341      0.1570
    107  C         35.2190   25.3610   37.8990 C.2   341  MET341      0.2261
    108  O         34.7890   24.6560   36.9900 O.2   341  MET341     -0.2867
    109  CB        37.6950   25.7640   37.6440 C.3   341  MET341      0.0387
    110  CG        38.7530   26.7360   37.1000 C.3   341  MET341      0.0595
    111  SD        40.4210   26.1060   37.1280 S.3   341  MET341     -0.1393
    112  CE        41.2970   27.4000   37.9390 C.3   341  MET341      0.0692
@<TRIPOS>BOND
     1    84    83    2
     2    83    82    1
     3    89    90    1
     4    81    82    1
     5    82    85    1
     6    95    93    1
     7   103   102    1
     8    90    93    1
     9    90    91    1
    10    94    93    1
    11    94    96    1
    12   102   101    1
    13   102   104    1
    14    97    91   am
    15    97    98    1
    16   101    98    1
    17    85    86    1
    18    91    92    2
    19   100    99    2
    20    98    99    1
    21    86    88    1
    22    86    87    1
    23   108   107    2
    24   110   111    1
    25   110   109    1
    26   111   112    1
    27   106   109    1
    28   106   107    1
    29   106   105    1
    30    20    19    1
    31    38    39   ar
    32    38    36   ar
    33    39    37   ar
    34    19    17   ar
    35    19    18   ar
    36    17    15   ar
    37    18    16   ar
    38    36    34   ar
    39    37    35   ar
    40    15    14   ar
    41    16    14   ar
    42    14    13    1
    43    34    35   ar
    44    34    33    1
    45    13    10    1
    46    33    30    1
    47    10    11    1
    48    10     9    1
    49    12    11    2
    50    72    71    2
    51    32    31    2
    52    71    70    1
    53    31    30    1
    54     9     3   am
    55    30    29    1
    56    58    56   ar
    57    58    59   ar
    58     8     6    1
    59    56    54   ar
    60     3     4    2
    61     3     2    1
    62     6     5    1
    63     6     7    1
    64    51    52    2
    65    51    50    1
    66     5     2    1
    67    29    23   am
    68    59    57   ar
    69    70    69    1
    70    70    73    1
    71    54    53    1
    72    54    55   ar
    73    69    62   am
    74    53    50    1
    75     2     1    1
    76    73    74    1
    77    40    41    1
    78    60    61    1
    79    50    49    1
    80    23    24    2
    81    23    22    1
    82    49    42   am
    83    57    55   ar
    84    62    63    2
    85    62    61    1
    86    21    22    1
    87    42    43    2
    88    42    41    1
    89    41    44    1
    90    61    64    1
    91    74    76   ar
    92    74    75   ar
    93    22    25    1
    94    76    78   ar
    95    25    27    1
    96    25    26    1
    97    75    77   ar
    98    64    65    1
    99    44    45    1
   100    45    46    1
   101    26    28    1
   102    78    79   ar
   103    65    66    1
   104    77    79   ar
   105    79    80    1
   106    66    67    1
   107    46    47    1
   108    47    48    1
   109    67    68    1
