@<TRIPOS>MOLECULE
tmp/1tv6A00.pdb
 184 183 0 0 0
SMALL
GASTEIGER

@<TRIPOS>ATOM
      1  N        139.6460  -16.9230   76.3190 N.3    95  PRO95      -0.2116
      2  CA       138.7580  -17.6160   75.3890 C.3    95  PRO95       0.1372
      3  C        137.8650  -18.6060   76.0930 C.2    95  PRO95       0.2244
      4  O        138.2770  -19.2480   77.0470 O.2    95  PRO95      -0.2868
      5  CB       139.7280  -18.2790   74.4180 C.3    95  PRO95       0.0268
      6  CG       140.9220  -18.4920   75.2310 C.3    95  PRO95       0.0207
      7  CD       141.0490  -17.2220   75.9990 C.3    95  PRO95       0.0892
      8  N        136.3670  -22.9220   71.0260 N.3   100  LEU100     -0.1231
      9  CA       137.5300  -23.4990   70.3640 C.3   100  LEU100      0.1693
     10  C        137.1060  -24.6060   69.3970 C.2   100  LEU100      0.2592
     11  O        136.2470  -25.4200   69.7210 O.2   100  LEU100     -0.2718
     12  CB       138.4680  -24.0710   71.4130 C.3   100  LEU100      0.0284
     13  CG       138.9290  -22.9880   72.3770 C.3   100  LEU100      0.0019
     14  CD1      139.2910  -23.5990   73.7080 C.3   100  LEU100      0.0001
     15  CD2      140.0960  -22.2470   71.7620 C.3   100  LEU100      0.0001
     16  N        137.6890  -24.6340   68.2030 N.am  101  LYS101     -0.1966
     17  CA       137.3470  -25.6770   67.2350 C.3   101  LYS101      0.1728
     18  C        138.0410  -26.9740   67.6470 C.2   101  LYS101      0.2616
     19  O        139.2500  -26.9800   67.9060 O.2   101  LYS101     -0.2715
     20  CB       137.7930  -25.2840   65.8170 C.3   101  LYS101      0.0311
     21  CG       136.8630  -24.3170   65.0680 C.3   101  LYS101      0.0038
     22  CD       136.8150  -22.9070   65.6720 C.3   101  LYS101      0.0206
     23  CE       138.1280  -22.1350   65.5230 C.3   101  LYS101      0.1093
     24  NZ       139.1610  -22.4830   66.5520 N.3   101  LYS101     -0.1314
     25  N        137.2750  -28.0650   67.7060 N.am  102  LYS102     -0.1963
     26  CA       137.8190  -29.3720   68.0960 C.3   102  LYS102      0.1728
     27  C        139.0070  -29.8180   67.2490 C.2   102  LYS102      0.2616
     28  O        139.0440  -29.6140   66.0330 O.2   102  LYS102     -0.2715
     29  CB       136.7480  -30.4680   68.0210 C.3   102  LYS102      0.0311
     30  CG       137.3280  -31.8680   68.2410 C.3   102  LYS102      0.0038
     31  CD       136.3750  -32.9760   67.8210 C.3   102  LYS102      0.0206
     32  CE       135.2380  -33.1600   68.8120 C.3   102  LYS102      0.1093
     33  NZ       134.3180  -34.2510   68.3740 N.3   102  LYS102     -0.1314
     34  N        139.9750  -30.4470   67.8990 N.am  103  LYS103     -0.1963
     35  CA       141.1470  -30.9220   67.1880 C.3   103  LYS103      0.1728
     36  C        141.4290  -32.3770   67.5590 C.2   103  LYS103      0.2616
     37  O        140.8910  -32.8940   68.5430 O.2   103  LYS103     -0.2715
     38  CB       142.3540  -30.0350   67.5260 C.3   103  LYS103      0.0311
     39  CG       142.2070  -28.5850   67.0680 C.3   103  LYS103      0.0038
     40  CD       141.9450  -28.5330   65.5710 C.3   103  LYS103      0.0206
     41  CE       141.7880  -27.1190   65.0450 C.3   103  LYS103      0.1093
     42  NZ       141.4330  -27.1390   63.5960 N.3   103  LYS103     -0.1314
     43  N        142.2520  -33.0480   66.7610 N.am  104  LYS104     -0.1963
     44  CA       142.5840  -34.4300   67.0620 C.3   104  LYS104      0.1728
     45  C        143.6030  -34.4300   68.1910 C.2   104  LYS104      0.2617
     46  O        143.5030  -35.2140   69.1300 O.2   104  LYS104     -0.2715
     47  CB       143.1550  -35.1390   65.8270 C.3   104  LYS104      0.0311
     48  CG       142.1260  -35.4230   64.7370 C.3   104  LYS104      0.0038
     49  CD       142.7500  -36.1180   63.5180 C.3   104  LYS104      0.0206
     50  CE       143.1590  -37.5630   63.7950 C.3   104  LYS104      0.1093
     51  NZ       143.8100  -38.1780   62.6050 N.3   104  LYS104     -0.1314
     52  N        144.5760  -33.5320   68.1110 N.am  105  SER105     -0.1936
     53  CA       145.5960  -33.4660   69.1440 C.3   105  SER105      0.2055
     54  C        145.9090  -32.0310   69.5680 C.2   105  SER105      0.2642
     55  O        146.0030  -31.1220   68.7370 O.2   105  SER105     -0.2714
     56  CB       146.8720  -34.1650   68.6610 C.3   105  SER105      0.2130
     57  OG       146.6340  -35.5350   68.3720 O.3   105  SER105     -0.2179
     58  N        146.0670  -31.8430   70.8750 N.am  106  VAL106     -0.1977
     59  CA       146.3650  -30.5400   71.4410 C.3   106  VAL106      0.1596
     60  C        147.3880  -30.6930   72.5450 C.2   106  VAL106      0.2287
     61  O        147.1740  -31.4300   73.5050 O.2   106  VAL106     -0.2864
     62  CB       145.1170  -29.8900   72.0490 C.3   106  VAL106      0.0276
     63  CG1      145.5010  -28.6100   72.7570 C.3   106  VAL106      0.0022
     64  CG2      144.0950  -29.6240   70.9690 C.3   106  VAL106      0.0022
     65  N        150.2020  -28.6040   75.2440 N.3   108  VAL108     -0.1245
     66  CA       150.4450  -27.3390   75.9170 C.3   108  VAL108      0.1561
     67  C        151.9350  -27.2780   76.2050 C.2   108  VAL108      0.2260
     68  O        152.5500  -28.3060   76.4560 O.2   108  VAL108     -0.2867
     69  CB       149.6360  -27.2360   77.2420 C.3   108  VAL108      0.0252
     70  CG1      150.3320  -26.2940   78.2240 C.3   108  VAL108      0.0019
     71  CG2      148.2220  -26.7230   76.9460 C.3   108  VAL108      0.0019
     72  N        147.8510  -20.8800   70.2410 N.3   181  TYR181     -0.1241
     73  CA       147.2150  -19.8170   70.9970 C.3   181  TYR181      0.1605
     74  C        147.9760  -19.5600   72.2860 C.2   181  TYR181      0.2264
     75  O        147.8860  -20.3230   73.2330 O.2   181  TYR181     -0.2867
     76  CB       145.7590  -20.1860   71.2860 C.3   181  TYR181      0.0534
     77  CG       144.8700  -20.2210   70.0520 C.ar  181  TYR181     -0.0201
     78  CD1      143.6380  -20.8870   70.0700 C.ar  181  TYR181     -0.0009
     79  CD2      145.2470  -19.5750   68.8740 C.ar  181  TYR181     -0.0009
     80  CE1      142.8060  -20.9070   68.9400 C.ar  181  TYR181      0.0417
     81  CE2      144.4280  -19.5880   67.7440 C.ar  181  TYR181      0.0417
     82  CZ       143.2110  -20.2530   67.7810 C.ar  181  TYR181      0.1957
     83  OH       142.4100  -20.2620   66.6600 O.3   181  TYR181     -0.2866
     84  N        149.0610  -17.7710   75.8130 N.3   183  TYR183     -0.1241
     85  CA       148.3310  -17.2320   76.9600 C.3   183  TYR183      0.1605
     86  C        149.1490  -17.1510   78.2350 C.2   183  TYR183      0.2264
     87  O        149.3910  -18.1500   78.8990 O.2   183  TYR183     -0.2867
     88  CB       147.0420  -18.0230   77.2250 C.3   183  TYR183      0.0534
     89  CG       145.8200  -17.2090   76.8860 C.ar  183  TYR183     -0.0201
     90  CD1      145.3420  -17.1420   75.5710 C.ar  183  TYR183     -0.0009
     91  CD2      145.2380  -16.3750   77.8440 C.ar  183  TYR183     -0.0009
     92  CE1      144.3250  -16.2490   75.2160 C.ar  183  TYR183      0.0417
     93  CE2      144.2220  -15.4770   77.5020 C.ar  183  TYR183      0.0417
     94  CZ       143.7730  -15.4150   76.1860 C.ar  183  TYR183      0.1957
     95  OH       142.8030  -14.4970   75.8390 O.3   183  TYR183     -0.2866
     96  N        151.5510  -20.1670   78.8740 N.3   186  ASP186     -0.1239
     97  CA       151.2220  -21.5210   78.4600 C.3   186  ASP186      0.1674
     98  C        150.8260  -21.5690   76.9680 C.2   186  ASP186      0.2266
     99  O        149.7930  -21.0220   76.5760 O.2   186  ASP186     -0.2867
    100  CB       150.0710  -22.0700   79.3280 C.3   186  ASP186      0.1410
    101  CG       150.4290  -22.1580   80.8170 C.2   186  ASP186      0.3668
    102  OD1      151.5250  -22.6550   81.1440 O.co2 186  ASP186     -0.2456
    103  OD2      149.6090  -21.7500   81.6680 O.co2 186  ASP186     -0.2456
    104  N        149.4570  -23.2430   73.4540 N.3   188  TYR188     -0.1241
    105  CA       148.4780  -24.2400   73.0340 C.3   188  TYR188      0.1605
    106  C        148.7170  -24.5390   71.5670 C.2   188  TYR188      0.2264
    107  O        148.7240  -23.6350   70.7220 O.2   188  TYR188     -0.2867
    108  CB       147.0590  -23.6920   73.2680 C.3   188  TYR188      0.0534
    109  CG       145.9030  -24.2470   72.4370 C.ar  188  TYR188     -0.0201
    110  CD1      144.7460  -24.7340   73.0550 C.ar  188  TYR188     -0.0009
    111  CD2      145.9180  -24.1990   71.0430 C.ar  188  TYR188     -0.0009
    112  CE1      143.6420  -25.1510   72.3040 C.ar  188  TYR188      0.0417
    113  CE2      144.8160  -24.6160   70.2880 C.ar  188  TYR188      0.0417
    114  CZ       143.6830  -25.0890   70.9220 C.ar  188  TYR188      0.1957
    115  OH       142.5940  -25.4940   70.1720 O.3   188  TYR188     -0.2866
    116  N        145.8330  -34.0120   78.5130 N.3   221  PRO221     -0.2116
    117  CA       144.5000  -33.5160   78.2270 C.3   221  PRO221      0.1372
    118  C        143.6240  -33.0950   79.3740 C.2   221  PRO221      0.2244
    119  O        142.9590  -32.0610   79.3050 O.2   221  PRO221     -0.2868
    120  CB       143.9330  -34.6330   77.3620 C.3   221  PRO221      0.0268
    121  CG       145.0280  -34.6940   76.3640 C.3   221  PRO221      0.0207
    122  CD       146.2900  -34.7560   77.3210 C.3   221  PRO221      0.0892
    123  N        143.4970  -31.0830   81.4290 N.3   223  PHE223     -0.1241
    124  CA       144.1580  -29.8240   81.8270 C.3   223  PHE223      0.1605
    125  C        143.6530  -28.9380   82.9550 C.2   223  PHE223      0.2264
    126  O        142.4770  -28.9200   83.3120 O.2   223  PHE223     -0.2867
    127  CB       144.3790  -28.9300   80.6050 C.3   223  PHE223      0.0534
    128  CG       145.6050  -29.2770   79.8400 C.ar  223  PHE223     -0.0203
    129  CD1      145.5280  -30.0520   78.6880 C.ar  223  PHE223     -0.0042
    130  CD2      146.8490  -28.8510   80.2840 C.ar  223  PHE223     -0.0042
    131  CE1      146.6850  -30.3970   77.9770 C.ar  223  PHE223     -0.0003
    132  CE2      148.0090  -29.1850   79.5910 C.ar  223  PHE223     -0.0003
    133  CZ       147.9290  -29.9610   78.4300 C.ar  223  PHE223     -0.0000
    134  N        143.9610  -25.4420   83.1190 N.3   225  TRP225     -0.1241
    135  CA       143.4730  -24.1270   82.7050 C.3   225  TRP225      0.1605
    136  C        142.2510  -23.5140   83.3800 C.2   225  TRP225      0.2264
    137  O        141.1650  -24.0900   83.4210 O.2   225  TRP225     -0.2867
    138  CB       143.2640  -24.1070   81.1880 C.3   225  TRP225      0.0550
    139  CG       143.3880  -22.7270   80.6000 C.ar  225  TRP225      0.0003
    140  CD1      144.4780  -21.9020   80.6510 C.ar  225  TRP225      0.0946
    141  CD2      142.3840  -22.0170   79.8680 C.ar  225  TRP225      0.0152
    142  NE1      144.2120  -20.7250   79.9950 N.ar  225  TRP225     -0.2442
    143  CE2      142.9330  -20.7710   79.5040 C.ar  225  TRP225      0.0810
    144  CE3      141.0710  -22.3150   79.4830 C.ar  225  TRP225      0.0012
    145  CZ2      142.2140  -19.8220   78.7730 C.ar  225  TRP225      0.0191
    146  CZ3      140.3580  -21.3700   78.7580 C.ar  225  TRP225      0.0001
    147  CH2      140.9320  -20.1400   78.4100 C.ar  225  TRP225      0.0015
    148  N        139.7450  -29.7760   81.1050 N.3   230  LEU230     -0.1231
    149  CA       139.6880  -30.0360   79.6700 C.3   230  LEU230      0.1693
    150  C        139.8900  -31.5010   79.3170 C.2   230  LEU230      0.2592
    151  O        140.4740  -32.2580   80.0940 O.2   230  LEU230     -0.2718
    152  CB       140.7180  -29.1620   78.9650 C.3   230  LEU230      0.0284
    153  CG       140.3500  -27.6950   79.1910 C.3   230  LEU230      0.0019
    154  CD1      141.5650  -26.9030   79.6250 C.3   230  LEU230      0.0001
    155  CD2      139.7210  -27.1400   77.9260 C.3   230  LEU230      0.0001
    156  N        139.3980  -31.8970   78.1450 N.am  231  HIS231     -0.1962
    157  CA       139.5080  -33.2830   77.7040 C.3   231  HIS231      0.1772
    158  C        139.6850  -33.4130   76.1900 C.2   231  HIS231      0.2462
    159  O        139.5720  -32.4280   75.4490 O.2   231  HIS231     -0.2730
    160  CB       138.2620  -34.0710   78.1400 C.3   231  HIS231      0.0785
    161  CG       138.1010  -34.1820   79.6260 C.ar  231  HIS231      0.0821
    162  ND1      139.0830  -34.6970   80.4450 N.ar  231  HIS231     -0.2267
    163  CD2      137.0740  -33.8410   80.4400 C.ar  231  HIS231      0.1154
    164  CE1      138.6690  -34.6670   81.7000 C.ar  231  HIS231      0.1986
    165  NE2      137.4530  -34.1520   81.7240 N.ar  231  HIS231     -0.2212
    166  N        139.9740  -34.6430   75.7170 N.am  232  PRO232     -0.2727
    167  CA       140.1820  -34.9990   74.3060 C.3   232  PRO232      0.1402
    168  C        139.0360  -34.7060   73.3330 C.2   232  PRO232      0.2269
    169  O        139.1820  -34.8790   72.1220 O.2   232  PRO232     -0.2865
    170  CB       140.5310  -36.4910   74.3660 C.3   232  PRO232      0.0296
    171  CG       139.8970  -36.9510   75.6550 C.3   232  PRO232      0.0237
    172  CD       140.2450  -35.8100   76.5750 C.3   232  PRO232      0.0939
    173  N        132.8150  -29.3190   71.9590 N.3   314  TYR314     -0.1241
    174  CA       133.4620  -28.1860   71.2990 C.3   314  TYR314      0.1605
    175  C        132.7330  -27.6640   70.0750 C.2   314  TYR314      0.2264
    176  O        131.6300  -28.1010   69.7630 O.2   314  TYR314     -0.2867
    177  CB       134.9060  -28.5110   70.9290 C.3   314  TYR314      0.0534
    178  CG       135.8110  -28.6340   72.1320 C.ar  314  TYR314     -0.0201
    179  CD1      135.6970  -27.7570   73.2100 C.ar  314  TYR314     -0.0009
    180  CD2      136.7800  -29.6280   72.1990 C.ar  314  TYR314     -0.0009
    181  CE1      136.5250  -27.8710   74.3200 C.ar  314  TYR314      0.0417
    182  CE2      137.6050  -29.7490   73.3050 C.ar  314  TYR314      0.0417
    183  CZ       137.4730  -28.8690   74.3590 C.ar  314  TYR314      0.1957
    184  OH       138.2980  -29.0020   75.4470 O.3   314  TYR314     -0.2866
@<TRIPOS>BOND
     1    51    50    1
     2    49    50    1
     3    49    48    1
     4    42    41    1
     5    48    47    1
     6    41    40    1
     7    21    22    1
     8    21    20    1
     9    23    22    1
    10    23    24    1
    11    40    39    1
    12    20    17    1
    13    47    44    1
    14    28    27    2
    15    83    82    1
    16    43    44    1
    17    43    36   am
    18    44    45    1
    19    39    38    1
    20    35    38    1
    21    35    36    1
    22    35    34    1
    23    17    18    1
    24    17    16    1
    25    27    34   am
    26    27    26    1
    27    36    37    2
    28    18    25   am
    29    18    19    2
    30    25    26    1
    31    81    82   ar
    32    81    79   ar
    33    82    80   ar
    34    31    30    1
    35    31    32    1
    36    29    26    1
    37    29    30    1
    38    52    45   am
    39    52    53    1
    40    45    46    2
    41    16    10   am
    42    57    56    1
    43    33    32    1
    44    56    53    1
    45    55    54    2
    46    79    77   ar
    47    80    78   ar
    48    53    54    1
    49    10    11    2
    50    10     9    1
    51    54    58   am
    52   176   175    2
    53    77    78   ar
    54    77    76    1
    55   175   174    1
    56   115   114    1
    57    72    73    1
    58   113   114   ar
    59   113   111   ar
    60     9     8    1
    61     9    12    1
    62   107   106    2
    63    58    59    1
    64   114   112   ar
    65   177   174    1
    66   177   178    1
    67    64    62    1
    68    73    76    1
    69    73    74    1
    70   111   109   ar
    71   174   173    1
    72    12    13    1
    73    59    62    1
    74    59    60    1
    75   106   105    1
    76    15    13    1
    77    62    63    1
    78   169   168    2
    79   178   180   ar
    80   178   179   ar
    81   180   182   ar
    82    74    75    2
    83   112   110   ar
    84    13    14    1
    85   109   110   ar
    86   109   108    1
    87    60    61    2
    88   105   108    1
    89   105   104    1
    90   179   181   ar
    91   182   183   ar
    92   168   167    1
    93   167   170    1
    94   167   166    1
    95   181   183   ar
    96   183   184    1
    97   170   171    1
    98     5     6    1
    99     5     2    1
   100    92    90   ar
   101    92    94   ar
   102     6     7    1
   103    65    66    1
   104     2     3    1
   105     2     1    1
   106   159   158    2
   107    90    89   ar
   108   171   172    1
   109   166   158   am
   110   166   172    1
   111    84    85    1
   112    95    94    1
   113    66    67    1
   114    66    69    1
   115     7     1    1
   116     3     4    2
   117    94    93   ar
   118   158   157    1
   119    67    68    2
   120   121   122    1
   121   121   120    1
   122    99    98    2
   123    89    88    1
   124    89    91   ar
   125    71    69    1
   126    85    88    1
   127    85    86    1
   128    98    97    1
   129    69    70    1
   130   122   116    1
   131   120   117    1
   132    93    91   ar
   133   157   160    1
   134   157   156    1
   135   155   153    1
   136   131   133   ar
   137   131   129   ar
   138   160   161    1
   139   156   150   am
   140   117   116    1
   141   117   118    1
   142    86    87    2
   143   147   146   ar
   144   147   145   ar
   145   133   132   ar
   146    97    96    1
   147    97   100    1
   148   129   128   ar
   149   146   144   ar
   150   145   143   ar
   151   152   153    1
   152   152   149    1
   153   153   154    1
   154   119   118    2
   155   150   149    1
   156   150   151    2
   157   100   101    1
   158   144   141   ar
   159   143   141   ar
   160   143   142   ar
   161   132   130   ar
   162   161   163   ar
   163   161   162   ar
   164   149   148    1
   165   128   130   ar
   166   128   127    1
   167   141   139   ar
   168   142   140   ar
   169   163   165   ar
   170   162   164   ar
   171   139   140   ar
   172   139   138    1
   173   127   124    1
   174   101   102   ar
   175   101   103   ar
   176   138   135    1
   177   123   124    1
   178   164   165   ar
   179   124   125    1
   180   135   134    1
   181   135   136    1
   182   125   126    2
   183   136   137    2
