@<TRIPOS>MOLECULE
tmp/1tv8A01.pdb
 106 98 0 0 0
SMALL
GASTEIGER

@<TRIPOS>ATOM
      1  N         26.8630   77.4960   18.4240 N.3    15  ARG15      -0.1245
      2  CA        25.7320   77.1120   17.5780 C.3    15  ARG15       0.1563
      3  C         25.0520   78.3950   17.1790 C.2    15  ARG15       0.2260
      4  O         24.5790   79.1330   18.0350 O.2    15  ARG15      -0.2867
      5  CB        24.8220   76.1980   18.3860 C.3    15  ARG15       0.0307
      6  CG        23.8740   75.2400   17.5900 C.3    15  ARG15       0.0489
      7  CD        23.2130   74.1500   18.5130 C.3    15  ARG15       0.2205
      8  NE        23.5310   72.7490   18.2030 N.pl3  15  ARG15      -0.0865
      9  CZ        24.7380   72.1830   18.2230 C.cat  15  ARG15       0.5346
     10  NH1       25.8760   72.8690   18.4910 N.pl3  15  ARG15       0.1354
     11  NH2       24.8170   70.8950   17.9170 N.pl3  15  ARG15       0.1354
     12  N         20.4830   58.7300   17.9400 N.3   192  ILE192     -0.1245
     13  CA        20.3470   59.6140   19.0820 C.3   192  ILE192      0.1561
     14  C         19.1450   59.2260   19.9360 C.2   192  ILE192      0.2260
     15  O         18.0560   58.9840   19.4180 O.2   192  ILE192     -0.2867
     16  CB        20.1880   61.0320   18.5860 C.3   192  ILE192      0.0252
     17  CG1       21.3930   61.3830   17.6950 C.3   192  ILE192      0.0019
     18  CG2       20.0210   62.0000   19.7560 C.3   192  ILE192      0.0019
     19  CD1       21.2170   62.6400   16.9060 C.3   192  ILE192      0.0001
     20  N         14.9410   62.6320   23.6640 N.3   195  MET195     -0.1245
     21  CA        14.8230   63.3390   24.9120 C.3   195  MET195      0.1570
     22  C         13.3870   63.8310   25.0800 C.2   195  MET195      0.2261
     23  O         12.8720   64.5750   24.2550 O.2   195  MET195     -0.2867
     24  CB        15.7850   64.5190   24.9520 C.3   195  MET195      0.0387
     25  CG        17.2460   64.1500   24.6100 C.3   195  MET195      0.0595
     26  SD        18.3590   65.5520   24.7680 S.3   195  MET195     -0.1393
     27  CE        18.1990   66.1420   23.2570 C.3   195  MET195      0.0692
     28  N         24.4720   57.9620   20.5930 N.3   251  ILE251     -0.1245
     29  CA        24.4840   59.1250   21.4640 C.3   251  ILE251      0.1561
     30  C         23.5250   58.9380   22.6270 C.2   251  ILE251      0.2260
     31  O         22.3270   58.7950   22.4400 O.2   251  ILE251     -0.2867
     32  CB        24.1610   60.3960   20.6350 C.3   251  ILE251      0.0252
     33  CG1       25.1190   60.4610   19.4430 C.3   251  ILE251      0.0019
     34  CG2       24.2660   61.6780   21.5050 C.3   251  ILE251      0.0019
     35  CD1       25.2360   61.8120   18.8020 C.3   251  ILE251      0.0001
     36  N         22.0490   60.6150   24.9950 N.3   253  SER253     -0.1217
     37  CA        21.5220   61.8790   25.4950 C.3   253  SER253      0.1889
     38  C         20.7460   61.7710   26.8140 C.2   253  SER253      0.2288
     39  O         20.7490   62.6960   27.6440 O.2   253  SER253     -0.2866
     40  CB        20.6280   62.5260   24.4320 C.3   253  SER253      0.2089
     41  OG        20.0330   61.5810   23.5430 O.3   253  SER253     -0.2183
     42  N         25.7930   64.0720   29.5920 N.3   258  PHE258     -0.1227
     43  CA        27.2090   64.5220   29.5430 C.3   258  PHE258      0.1736
     44  C         27.4420   66.0500   29.6820 C.2   258  PHE258      0.2595
     45  O         28.3290   66.6100   29.0410 O.2   258  PHE258     -0.2718
     46  CB        27.8270   64.0440   28.2150 C.3   258  PHE258      0.0547
     47  CG        26.9000   64.1790   27.0290 C.ar  258  PHE258     -0.0202
     48  CD1       26.7360   65.4040   26.3890 C.ar  258  PHE258     -0.0042
     49  CD2       26.1680   63.0720   26.5690 C.ar  258  PHE258     -0.0042
     50  CE1       25.8750   65.5280   25.3150 C.ar  258  PHE258     -0.0003
     51  CE2       25.3070   63.1850   25.4890 C.ar  258  PHE258     -0.0003
     52  CZ        25.1590   64.4100   24.8610 C.ar  258  PHE258     -0.0000
     53  N         26.6630   66.7090   30.5260 N.am  259  CYS259     -0.1970
     54  CA        26.7570   68.1440   30.6850 C.3   259  CYS259      0.1712
     55  C         28.1370   68.5980   31.1690 C.2   259  CYS259      0.2296
     56  O         28.5500   69.7230   30.9000 O.2   259  CYS259     -0.2864
     57  CB        25.6670   68.6490   31.6160 C.3   259  CYS259      0.0983
     58  SG        24.0220   68.3540   30.9840 S.3   259  CYS259     -0.0798
     59  N         30.2670   69.8370   28.3780 N.3   262  CYS262     -0.1235
     60  CA        29.5260   70.6500   27.4190 C.3   262  CYS262      0.1677
     61  C         30.1290   72.0510   27.2970 C.2   262  CYS262      0.2270
     62  O         30.1590   72.8300   28.2690 O.2   262  CYS262     -0.2867
     63  CB        28.0640   70.7580   27.7980 C.3   262  CYS262      0.0956
     64  SG        27.1080   71.7440   26.5780 S.3   262  CYS262     -0.0801
     65  N         29.2990   74.3500   24.7450 N.3   264  ARG264     -0.1245
     66  CA        28.4640   74.9800   23.7160 C.3   264  ARG264      0.1563
     67  C         27.8160   76.2610   24.1470 C.2   264  ARG264      0.2260
     68  O         27.1570   76.2830   25.1590 O.2   264  ARG264     -0.2867
     69  CB        27.3380   74.0380   23.3540 C.3   264  ARG264      0.0307
     70  CG        27.7550   72.6600   22.8650 C.3   264  ARG264      0.0489
     71  CD        26.5440   71.8630   22.3030 C.3   264  ARG264      0.2205
     72  NE        26.7630   70.4160   22.3140 N.pl3 264  ARG264     -0.0865
     73  CZ        25.9300   69.5280   21.7380 C.cat 264  ARG264      0.5346
     74  NH1       24.8370   69.9340   21.0830 N.pl3 264  ARG264      0.1354
     75  NH2       26.2020   68.2190   21.7950 N.pl3 264  ARG264      0.1354
     76  N         22.6000   76.6070   26.9330 N.3   276  CYS276     -0.1221
     77  CA        22.1010   75.2480   26.8560 C.3   276  CYS276      0.1808
     78  C         21.0880   75.1650   25.7130 C.2   276  CYS276      0.2601
     79  O         20.4120   76.1470   25.4270 O.2   276  CYS276     -0.2717
     80  CB        21.3730   74.9360   28.1600 C.3   276  CYS276      0.0970
     81  SG        20.8670   73.2340   28.3960 S.3   276  CYS276     -0.0800
     82  N         20.9420   73.9750   25.1320 N.am  277  LEU277     -0.1965
     83  CA        19.8490   73.6860   24.1970 C.3   277  LEU277      0.1728
     84  C         18.4570   73.7900   24.7880 C.2   277  LEU277      0.2616
     85  O         17.4930   73.9800   24.0450 O.2   277  LEU277     -0.2715
     86  CB        19.9970   72.2850   23.6290 C.3   277  LEU277      0.0311
     87  CG        21.2080   72.0620   22.7400 C.3   277  LEU277      0.0022
     88  CD1       21.0990   70.7150   21.9720 C.3   277  LEU277      0.0001
     89  CD2       21.4470   73.2680   21.7740 C.3   277  LEU277      0.0001
     90  N         18.3310   73.6130   26.0980 N.am  278  PHE278     -0.1974
     91  CA        17.0430   73.7010   26.7710 C.3   278  PHE278      0.1639
     92  C         17.0050   75.0140   27.5180 C.2   278  PHE278      0.2290
     93  O         17.9340   75.3660   28.2500 O.2   278  PHE278     -0.2864
     94  CB        16.8690   72.5830   27.7950 C.3   278  PHE278      0.0560
     95  CG        16.8530   71.2110   27.2020 C.ar  278  PHE278     -0.0200
     96  CD1       18.0300   70.5660   26.8980 C.ar  278  PHE278     -0.0042
     97  CD2       15.6430   70.5440   26.9910 C.ar  278  PHE278     -0.0042
     98  CE1       18.0260   69.2930   26.3480 C.ar  278  PHE278     -0.0003
     99  CE2       15.6250   69.2670   26.4440 C.ar  278  PHE278     -0.0003
    100  CZ        16.8180   68.6420   26.1090 C.ar  278  PHE278     -0.0000
    101  N         20.3390   68.2770   31.1880 N.3   315  SER315     -0.1217
    102  CA        20.1950   66.8310   31.0770 C.3   315  SER315      0.1889
    103  C         20.6200   66.0970   32.3420 C.2   315  SER315      0.2288
    104  O         20.0080   65.1160   32.6940 O.2   315  SER315     -0.2866
    105  CB        20.9610   66.3140   29.8650 C.3   315  SER315      0.2089
    106  OG        20.3140   66.8200   28.7040 O.3   315  SER315     -0.2183
@<TRIPOS>BOND
     1    19    17    1
     2     3     2    1
     3     3     4    2
     4     2     5    1
     5     2     1    1
     6     6     5    1
     7     6     7    1
     8    17    16    1
     9    11     9    1
    10    12    13    1
    11     8     9    2
    12     8     7    1
    13     9    10    1
    14    16    13    1
    15    16    18    1
    16    35    33    1
    17    13    14    1
    18    15    14    2
    19    33    32    1
    20    28    29    1
    21    32    29    1
    22    32    34    1
    23    74    73    1
    24    29    30    1
    25    73    75    1
    26    73    72    2
    27    89    87    1
    28    88    87    1
    29    71    72    1
    30    71    70    1
    31    31    30    2
    32    87    86    1
    33    70    69    1
    34    27    26    1
    35    69    66    1
    36    41    40    1
    37    86    83    1
    38    20    21    1
    39    66    67    1
    40    66    65    1
    41    85    84    2
    42    67    68    2
    43    83    84    1
    44    83    82    1
    45    23    22    2
    46    40    37    1
    47    25    26    1
    48    25    24    1
    49    84    90   am
    50    52    50   ar
    51    52    51   ar
    52    21    24    1
    53    21    22    1
    54    36    37    1
    55    82    78   am
    56    50    48   ar
    57    79    78    2
    58    51    49   ar
    59    37    38    1
    60    78    77    1
    61    90    91    1
    62   100    98   ar
    63   100    99   ar
    64    98    96   ar
    65    48    47   ar
    66    99    97   ar
    67    49    47   ar
    68    64    63    1
    69    91    92    1
    70    91    94    1
    71    38    39    2
    72    77    76    1
    73    77    80    1
    74    96    95   ar
    75    97    95   ar
    76    47    46    1
    77    95    94    1
    78    61    60    1
    79    61    62    2
    80    60    63    1
    81    60    59    1
    82    92    93    2
    83    80    81    1
    84    46    43    1
    85   106   105    1
    86    45    44    2
    87    43    42    1
    88    43    44    1
    89    44    53   am
    90   105   102    1
    91    53    54    1
    92    54    55    1
    93    54    57    1
    94    56    55    2
    95    58    57    1
    96   102   101    1
    97   102   103    1
    98   103   104    2
