@<TRIPOS>MOLECULE
tmp/1tveA00.pdb
 161 152 0 0 0
SMALL
GASTEIGER

@<TRIPOS>ATOM
      1  N         -2.4470   44.3730  -23.4220 N.3    15  VAL15      -0.1245
      2  CA        -1.1240   44.2100  -24.0090 C.3    15  VAL15       0.1561
      3  C         -1.3060   44.1250  -25.5160 C.2    15  VAL15       0.2260
      4  O         -0.3520   44.2810  -26.2790 O.2    15  VAL15      -0.2867
      5  CB        -0.4050   42.9330  -23.5020 C.3    15  VAL15       0.0252
      6  CG1       -0.4310   42.8980  -21.9870 C.3    15  VAL15       0.0019
      7  CG2       -1.0430   41.6900  -24.0910 C.3    15  VAL15       0.0019
      8  N         -3.8470   37.1660  -26.6110 N.3    92  THR92      -0.1203
      9  CA        -4.8520   36.6210  -25.7030 C.3    92  THR92       0.1994
     10  C         -4.2750   35.6640  -24.6770 C.2    92  THR92       0.2618
     11  O         -3.0580   35.4930  -24.5670 O.2    92  THR92      -0.2717
     12  CB        -5.9640   35.8620  -26.4610 C.3    92  THR92       0.1784
     13  OG1       -5.5540   34.5030  -26.6700 O.3    92  THR92      -0.2211
     14  CG2       -6.2400   36.5250  -27.8150 C.3    92  THR92       0.0376
     15  N         -5.1810   35.0380  -23.9340 N.am   93  SER93      -0.1951
     16  CA        -4.8350   34.0850  -22.8930 C.3    93  SER93       0.1924
     17  C         -5.5770   32.7870  -23.1550 C.2    93  SER93       0.2314
     18  O         -5.3180   31.7690  -22.5200 O.2    93  SER93      -0.2863
     19  CB        -5.2460   34.6350  -21.5380 C.3    93  SER93       0.2116
     20  OG        -6.6280   34.9440  -21.5270 O.3    93  SER93      -0.2180
     21  N          2.3530   36.0050  -25.7100 N.3   114  PRO114     -0.2102
     22  CA         2.6260   36.2090  -24.2880 C.3   114  PRO114      0.1504
     23  C          1.7320   35.2400  -23.5000 C.2   114  PRO114      0.2576
     24  O          1.6940   35.2600  -22.2660 O.2   114  PRO114     -0.2718
     25  CB         2.2320   37.6600  -24.0790 C.3   114  PRO114      0.0282
     26  CG         1.0390   37.7710  -24.9420 C.3   114  PRO114      0.0208
     27  CD         1.4830   37.0800  -26.2160 C.3   114  PRO114      0.0893
     28  N          1.0180   34.3980  -24.2480 N.am  115  ASN115     -0.1961
     29  CA         0.1020   33.3930  -23.7050 C.3   115  ASN115      0.1819
     30  C          0.8200   32.0790  -23.4230 C.2   115  ASN115      0.2621
     31  O          1.3220   31.4260  -24.3370 O.2   115  ASN115     -0.2715
     32  CB        -1.0320   33.1350  -24.6960 C.3   115  ASN115      0.1195
     33  CG        -1.9190   31.9840  -24.2800 C.2   115  ASN115      0.2630
     34  OD1       -2.8030   32.1410  -23.4450 O.2   115  ASN115     -0.2716
     35  ND2       -1.6770   30.8120  -24.8560 N.am  115  ASN115     -0.0877
     36  N          0.8380   31.6920  -22.1530 N.am  116  LYS116     -0.1977
     37  CA         1.5050   30.4780  -21.7040 C.3   116  LYS116      0.1596
     38  C          0.9550   29.1720  -22.2400 C.2   116  LYS116      0.2287
     39  O          1.6690   28.4040  -22.8920 O.2   116  LYS116     -0.2864
     40  CB         1.4830   30.4260  -20.1840 C.3   116  LYS116      0.0298
     41  CG         2.6530   31.1240  -19.5630 C.3   116  LYS116      0.0038
     42  CD         2.2970   31.6710  -18.2070 C.3   116  LYS116      0.0206
     43  CE         1.3340   32.8260  -18.3480 C.3   116  LYS116      0.1093
     44  NZ         1.8410   33.9120  -19.2490 N.3   116  LYS116     -0.1314
     45  N          5.3380   36.5150  -10.2020 N.3   173  SER173     -0.1202
     46  CA         3.9670   37.0070  -10.2100 C.3   173  SER173      0.2020
     47  C          3.7860   38.3970   -9.6600 C.2   173  SER173      0.2619
     48  O          4.1180   38.6840   -8.5020 O.2   173  SER173     -0.2717
     49  CB         3.0560   36.0470   -9.4330 C.3   173  SER173      0.2103
     50  OG         1.7550   36.5820   -9.2630 O.3   173  SER173     -0.2182
     51  N          3.2410   39.2660  -10.4980 N.am  174  GLY174     -0.1942
     52  CA         2.9940   40.6220  -10.0630 C.3   174  GLY174      0.2014
     53  C          2.0600   40.6390   -8.8760 C.2   174  GLY174      0.2639
     54  O          2.4200   41.1310   -7.8170 O.2   174  GLY174     -0.2714
     55  N          0.8630   40.0970   -9.0430 N.am  175  THR175     -0.1950
     56  CA        -0.0930   40.0760   -7.9460 C.3   175  THR175      0.1897
     57  C          0.4980   39.5430   -6.6370 C.2   175  THR175      0.2313
     58  O          0.6110   40.2770   -5.6550 O.2   175  THR175     -0.2863
     59  CB        -1.3220   39.2140   -8.2930 C.3   175  THR175      0.1794
     60  OG1       -0.8880   37.9410   -8.7900 O.3   175  THR175     -0.2208
     61  CG2       -2.1620   39.8940   -9.3570 C.3   175  THR175      0.0378
     62  N         -5.1710   45.0240   -8.9250 N.3   205  TYR205     -0.1227
     63  CA        -3.8740   44.3810   -9.0780 C.3   205  TYR205      0.1736
     64  C         -4.0480   42.8800   -9.3070 C.2   205  TYR205      0.2596
     65  O         -3.1540   42.2290   -9.8300 O.2   205  TYR205     -0.2718
     66  CB        -2.9830   44.6380   -7.8500 C.3   205  TYR205      0.0548
     67  CG        -2.1100   45.8700   -7.9850 C.ar  205  TYR205     -0.0200
     68  CD1       -2.6740   47.1460   -8.0300 C.ar  205  TYR205     -0.0009
     69  CD2       -0.7180   45.7560   -8.1310 C.ar  205  TYR205     -0.0009
     70  CE1       -1.8810   48.2840   -8.2220 C.ar  205  TYR205      0.0417
     71  CE2        0.0910   46.8890   -8.3260 C.ar  205  TYR205      0.0417
     72  CZ        -0.5040   48.1490   -8.3730 C.ar  205  TYR205      0.1957
     73  OH         0.2630   49.2710   -8.5900 O.3   205  TYR205     -0.2866
     74  N         -5.2050   42.3420   -8.9270 N.am  206  THR206     -0.1939
     75  CA        -5.4990   40.9210   -9.1100 C.3   206  THR206      0.2028
     76  C         -6.4740   40.7600  -10.2670 C.2   206  THR206      0.2642
     77  O         -6.9140   41.7350  -10.8480 O.2   206  THR206     -0.2714
     78  CB        -6.1520   40.2800   -7.8370 C.3   206  THR206      0.1808
     79  OG1       -7.4910   40.7660   -7.6670 O.3   206  THR206     -0.2208
     80  CG2       -5.3510   40.6200   -6.5930 C.3   206  THR206      0.0379
     81  N         -6.7970   39.5210  -10.6040 N.am  207  GLU207     -0.1976
     82  CA        -7.7510   39.2360  -11.6680 C.3   207  GLU207      0.1602
     83  C         -9.1130   39.6250  -11.1210 C.2   207  GLU207      0.2287
     84  O         -9.2610   39.8060   -9.9140 O.2   207  GLU207     -0.2864
     85  CB        -7.7610   37.7370  -11.9920 C.3   207  GLU207      0.0415
     86  CG        -6.7180   37.2870  -12.9830 C.3   207  GLU207      0.1163
     87  CD        -6.9070   37.9560  -14.3170 C.2   207  GLU207      0.3649
     88  OE1       -8.0730   38.0500  -14.7550 O.co2 207  GLU207     -0.2457
     89  OE2       -5.9010   38.3810  -14.9250 O.co2 207  GLU207     -0.2457
     90  N         -7.8950   33.1130   -9.5420 N.3   212  ASP212     -0.1225
     91  CA        -7.0640   32.7990  -10.7040 C.3   212  ASP212      0.1805
     92  C         -5.5960   33.1600  -10.4810 C.2   212  ASP212      0.2597
     93  O         -4.7100   32.7790  -11.2600 O.2   212  ASP212     -0.2718
     94  CB        -7.5910   33.5370  -11.9300 C.3   212  ASP212      0.1424
     95  CG        -9.0630   33.2700  -12.1820 C.2   212  ASP212      0.3668
     96  OD1       -9.4830   32.1060  -12.0650 O.co2 212  ASP212     -0.2456
     97  OD2       -9.8040   34.2180  -12.5090 O.co2 212  ASP212     -0.2456
     98  N         -5.3550   33.8970   -9.4010 N.am  213  ASP213     -0.1974
     99  CA        -4.0190   34.3360   -9.0230 C.3   213  ASP213      0.1709
    100  C         -3.5280   33.5920   -7.7950 C.2   213  ASP213      0.2293
    101  O         -2.3610   33.2220   -7.7060 O.2   213  ASP213     -0.2864
    102  CB        -4.0290   35.8310   -8.7090 C.3   213  ASP213      0.1436
    103  CG        -3.8530   36.6850   -9.9380 C.2   213  ASP213      0.3671
    104  OD1       -2.8160   36.5120  -10.6080 O.co2 213  ASP213     -0.2456
    105  OD2       -4.7320   37.5250  -10.2310 O.co2 213  ASP213     -0.2456
    106  N         -0.7470   30.5040  -12.5080 N.3   218  ASP218     -0.1239
    107  CA         0.1150   31.3580  -13.3170 C.3   218  ASP218      0.1674
    108  C          1.5910   31.0370  -13.1120 C.2   218  ASP218      0.2266
    109  O          2.2890   30.6540  -14.0430 O.2   218  ASP218     -0.2867
    110  CB        -0.1480   32.8280  -12.9630 C.3   218  ASP218      0.1410
    111  CG         0.5070   33.8050  -13.9360 C.2   218  ASP218      0.3668
    112  OD1        0.8540   34.9210  -13.4870 O.co2 218  ASP218     -0.2456
    113  OD2        0.6650   33.4730  -15.1380 O.co2 218  ASP218     -0.2456
    114  N          2.7830   27.7340  -14.1860 N.3   221  ARG221     -0.1231
    115  CA         2.9320   27.6540  -15.6340 C.3   221  ARG221      0.1694
    116  C          4.2410   28.2980  -16.0880 C.2   221  ARG221      0.2591
    117  O          4.9780   27.7360  -16.9000 O.2   221  ARG221     -0.2718
    118  CB         1.7570   28.3490  -16.3300 C.3   221  ARG221      0.0321
    119  CG         0.4060   27.9970  -15.7530 C.3   221  ARG221      0.0489
    120  CD        -0.7220   28.4080  -16.6830 C.3   221  ARG221      0.2205
    121  NE        -0.9700   27.4030  -17.7120 N.pl3 221  ARG221     -0.0865
    122  CZ        -2.0180   27.4080  -18.5300 C.cat 221  ARG221      0.5346
    123  NH1       -2.9220   28.3750  -18.4410 N.pl3 221  ARG221      0.1354
    124  NH2       -2.1640   26.4420  -19.4310 N.pl3 221  ARG221      0.1354
    125  N          4.5220   29.4840  -15.5640 N.am  222  LYS222     -0.1980
    126  CA         5.7370   30.1930  -15.9240 C.3   222  LYS222      0.1596
    127  C          6.9640   29.3750  -15.5730 C.2   222  LYS222      0.2287
    128  O          7.8870   29.2680  -16.3740 O.2   222  LYS222     -0.2864
    129  CB         5.7900   31.5540  -15.2250 C.3   222  LYS222      0.0298
    130  CG         4.7440   32.5340  -15.7330 C.3   222  LYS222      0.0038
    131  CD         4.8410   33.8850  -15.0620 C.3   222  LYS222      0.0206
    132  CE         3.6580   34.7500  -15.4470 C.3   222  LYS222      0.1093
    133  NZ         3.4680   35.8660  -14.4830 N.3   222  LYS222     -0.1314
    134  N          8.9400   41.5840  -10.9970 N.3   318  ASN318     -0.1240
    135  CA         9.2900   40.1740  -11.0360 C.3   318  ASN318      0.1653
    136  C         10.8000   40.0810  -10.9950 C.2   318  ASN318      0.2266
    137  O         11.4910   40.7500  -11.7620 O.2   318  ASN318     -0.2867
    138  CB         8.8070   39.5130  -12.3230 C.3   318  ASN318      0.1155
    139  CG         7.3240   39.5550  -12.4740 C.2   318  ASN318      0.2627
    140  OD1        6.7710   38.9580  -13.3940 O.2   318  ASN318     -0.2716
    141  ND2        6.6580   40.2650  -11.5750 N.am  318  ASN318     -0.0877
    142  N          7.2550   42.9310  -14.2390 N.3   337  GLY337     -0.1210
    143  CA         6.7960   41.6450  -14.7350 C.3   337  GLY337      0.1956
    144  C          5.3900   41.6810  -15.3030 C.2   337  GLY337      0.2612
    145  O          4.8810   40.6770  -15.8080 O.2   337  GLY337     -0.2717
    146  N          4.7590   42.8450  -15.2080 N.am  338  ALA338     -0.1965
    147  CA         3.4140   43.0440  -15.7290 C.3   338  ALA338      0.1728
    148  C          3.3960   44.4230  -16.3680 C.2   338  ALA338      0.2616
    149  O          4.4120   45.1110  -16.3820 O.2   338  ALA338     -0.2715
    150  CB         2.3970   42.9710  -14.6050 C.3   338  ALA338      0.0334
    151  N          2.2540   44.8270  -16.9070 N.am  339  GLY339     -0.1955
    152  CA         2.1780   46.1400  -17.5230 C.3   339  GLY339      0.1869
    153  C          1.8180   46.1360  -18.9950 C.2   339  GLY339      0.2309
    154  O          2.3720   45.3670  -19.7760 O.2   339  GLY339     -0.2863
    155  N          4.7300   44.9560  -21.2600 N.3   343  THR343     -0.1218
    156  CA         4.4810   43.6330  -21.8170 C.3   343  THR343      0.1862
    157  C          4.4020   43.5630  -23.3310 C.2   343  THR343      0.2287
    158  O          4.9840   42.6650  -23.9470 O.2   343  THR343     -0.2866
    159  CB         3.2030   43.0330  -21.2680 C.3   343  THR343      0.1770
    160  OG1        3.1670   43.2000  -19.8450 O.3   343  THR343     -0.2211
    161  CG2        3.1670   41.5560  -21.5940 C.3   343  THR343      0.0375
@<TRIPOS>BOND
     1    14    12    1
     2    13    12    1
     3     8     9    1
     4    12     9    1
     5     4     3    2
     6    27    21    1
     7    27    26    1
     8    21    22    1
     9     9    10    1
    10     3     2    1
    11    26    25    1
    12    35    33   am
    13    32    33    1
    14    32    29    1
    15    10    11    2
    16    10    15   am
    17    31    30    2
    18    22    25    1
    19    22    23    1
    20    33    34    2
    21    28    29    1
    22    28    23   am
    23     7     5    1
    24     2     5    1
    25     2     1    1
    26   158   157    2
    27    15    16    1
    28    29    30    1
    29     5     6    1
    30    23    24    2
    31    30    36   am
    32   157   156    1
    33    17    16    1
    34    17    18    2
    35    16    19    1
    36    39    38    2
    37    38    37    1
    38    36    37    1
    39   156   159    1
    40   156   155    1
    41    37    40    1
    42   161   159    1
    43    19    20    1
    44   159   160    1
    45    40    41    1
    46   154   153    2
    47    41    42    1
    48   124   122    1
    49    44    43    1
    50   153   152    1
    51   122   123    1
    52   122   121    2
    53    43    42    1
    54   121   120    1
    55   152   151    1
    56   151   148   am
    57   117   116    2
    58   120   119    1
    59   149   148    2
    60   128   127    2
    61   148   147    1
    62   118   119    1
    63   118   115    1
    64   116   115    1
    65   116   125   am
    66   126   127    1
    67   126   125    1
    68   126   129    1
    69   145   144    2
    70   130   129    1
    71   130   131    1
    72   147   146    1
    73   147   150    1
    74   115   114    1
    75   132   131    1
    76   132   133    1
    77   144   146   am
    78   144   143    1
    79   113   111   ar
    80    89    87   ar
    81    88    87   ar
    82   143   142    1
    83    87    86    1
    84   109   108    2
    85   111   112   ar
    86   111   110    1
    87   140   139    2
    88   107   108    1
    89   107   110    1
    90   107   106    1
    91    86    85    1
    92    97    95   ar
    93   139   138    1
    94   139   141   am
    95   138   135    1
    96    95    96   ar
    97    95    94    1
    98    85    82    1
    99    94    91    1
   100   137   136    2
   101    82    83    1
   102    82    81    1
   103    93    92    2
   104    83    84    2
   105   135   134    1
   106   135   136    1
   107    77    76    2
   108    91    92    1
   109    91    90    1
   110   104   103   ar
   111    81    76   am
   112    51    52    1
   113    51    47   am
   114    92    98   am
   115    76    75    1
   116   105   103   ar
   117    46    45    1
   118    46    47    1
   119    46    49    1
   120    52    53    1
   121   103   102    1
   122    65    64    2
   123    47    48    2
   124    49    50    1
   125    98    99    1
   126    61    59    1
   127    64    63    1
   128    64    74   am
   129    75    74    1
   130    75    78    1
   131    63    62    1
   132    63    66    1
   133    55    53   am
   134    55    56    1
   135    99   102    1
   136    99   100    1
   137    53    54    2
   138    60    59    1
   139    73    72    1
   140    72    71   ar
   141    72    70   ar
   142    71    69   ar
   143    59    56    1
   144    70    68   ar
   145    69    67   ar
   146    68    67   ar
   147    67    66    1
   148    56    57    1
   149    78    79    1
   150    78    80    1
   151   100   101    2
   152    57    58    2
