@<TRIPOS>MOLECULE
tmp/1tvpB00.pdb
 124 124 0 0 0
SMALL
GASTEIGER

@<TRIPOS>ATOM
      1  N         32.2850   50.0830   41.6090 N.3    27  PHE27      -0.1227
      2  CA        31.5450   50.9710   42.5080 C.3    27  PHE27       0.1736
      3  C         32.5550   51.4290   43.5710 C.2    27  PHE27       0.2595
      4  O         33.7100   50.9660   43.5790 O.2    27  PHE27      -0.2718
      5  CB        30.4420   50.1360   43.1720 C.3    27  PHE27       0.0547
      6  CG        29.4970   50.9120   44.0560 C.ar   27  PHE27      -0.0202
      7  CD1       28.4760   51.6830   43.4980 C.ar   27  PHE27      -0.0042
      8  CD2       29.5570   50.7840   45.4470 C.ar   27  PHE27      -0.0042
      9  CE1       27.5200   52.3120   44.3040 C.ar   27  PHE27      -0.0003
     10  CE2       28.6040   51.4100   46.2710 C.ar   27  PHE27      -0.0003
     11  CZ        27.5760   52.1800   45.6880 C.ar   27  PHE27      -0.0000
     12  N         32.1230   52.3280   44.4550 N.am   28  TRP28      -0.1976
     13  CA        32.9670   52.8490   45.5360 C.3    28  TRP28       0.1640
     14  C         33.6650   51.6690   46.2130 C.2    28  TRP28       0.2290
     15  O         33.0410   50.6370   46.4600 O.2    28  TRP28      -0.2864
     16  CB        32.0960   53.5040   46.6020 C.3    28  TRP28       0.0576
     17  CG        31.4090   54.7880   46.2370 C.ar   28  TRP28       0.0006
     18  CD1       30.2280   54.9270   45.5620 C.ar   28  TRP28       0.0946
     19  CD2       31.7890   56.1030   46.6560 C.ar   28  TRP28       0.0152
     20  NE1       29.8430   56.2470   45.5480 N.ar   28  TRP28      -0.2442
     21  CE2       30.7840   56.9910   46.2120 C.ar   28  TRP28       0.0810
     22  CE3       32.8770   56.6160   47.3790 C.ar   28  TRP28       0.0012
     23  CZ2       30.8330   58.3730   46.4630 C.ar   28  TRP28       0.0191
     24  CZ3       32.9280   57.9960   47.6370 C.ar   28  TRP28       0.0001
     25  CH2       31.9070   58.8570   47.1760 C.ar   28  TRP28       0.0015
     26  N         30.5200   49.4190   52.1230 N.3    33  TRP33      -0.1241
     27  CA        29.6180   49.7710   51.0280 C.3    33  TRP33       0.1605
     28  C         29.1810   48.6260   50.1090 C.2    33  TRP33       0.2264
     29  O         28.4420   48.8460   49.1450 O.2    33  TRP33      -0.2867
     30  CB        30.1550   50.9760   50.2420 C.3    33  TRP33       0.0550
     31  CG        30.0730   52.2790   51.0220 C.ar   33  TRP33       0.0003
     32  CD1       30.1850   52.4350   52.3730 C.ar   33  TRP33       0.0946
     33  CD2       29.8640   53.5950   50.4870 C.ar   33  TRP33       0.0152
     34  NE1       30.0610   53.7600   52.7140 N.ar   33  TRP33      -0.2442
     35  CE2       29.8620   54.4940   51.5750 C.ar   33  TRP33       0.0810
     36  CE3       29.6780   54.1000   49.1930 C.ar   33  TRP33       0.0012
     37  CZ2       29.6790   55.8700   51.4100 C.ar   33  TRP33       0.0191
     38  CZ3       29.4960   55.4690   49.0310 C.ar   33  TRP33       0.0001
     39  CH2       29.4980   56.3360   50.1320 C.ar   33  TRP33       0.0015
     40  N         38.2530   58.8210   44.0540 N.3   100  HIS100     -0.1241
     41  CA        36.8050   59.0490   44.0640 C.3   100  HIS100      0.1621
     42  C         36.3500   60.0070   45.1460 C.2   100  HIS100      0.2264
     43  O         35.7090   59.6200   46.1290 O.2   100  HIS100     -0.2867
     44  CB        36.1000   57.7060   44.1760 C.3   100  HIS100      0.0745
     45  CG        34.7620   57.6840   43.5130 C.ar  100  HIS100      0.0817
     46  ND1       34.6120   57.5530   42.1480 N.ar  100  HIS100     -0.2268
     47  CD2       33.5120   57.7880   44.0210 C.ar  100  HIS100      0.1154
     48  CE1       33.3260   57.5720   41.8460 C.ar  100  HIS100      0.1986
     49  NE2       32.6390   57.7150   42.9650 N.ar  100  HIS100     -0.2212
     50  N         34.6840   64.2120   46.1290 N.3   102  HIS102     -0.1241
     51  CA        33.8530   65.3700   45.8060 C.3   102  HIS102      0.1621
     52  C         34.4530   66.5260   46.6230 C.2   102  HIS102      0.2264
     53  O         33.8690   67.6100   46.6960 O.2   102  HIS102     -0.2867
     54  CB        32.4080   65.1950   46.2880 C.3   102  HIS102      0.0745
     55  CG        31.6300   64.1500   45.5590 C.ar  102  HIS102      0.0817
     56  ND1       31.4320   64.1800   44.1980 N.ar  102  HIS102     -0.2268
     57  CD2       30.9480   63.0700   46.0150 C.ar  102  HIS102      0.1154
     58  CE1       30.6610   63.1650   43.8440 C.ar  102  HIS102      0.1986
     59  NE2       30.3550   62.4750   44.9290 N.ar  102  HIS102     -0.2212
     60  N         24.5070   60.7710   33.0230 N.3   196  TYR196     -0.1241
     61  CA        23.5780   59.6810   33.3230 C.3   196  TYR196      0.1605
     62  C         22.4520   59.8990   32.3130 C.2   196  TYR196      0.2264
     63  O         21.7580   60.9230   32.3420 O.2   196  TYR196     -0.2867
     64  CB        23.1050   59.7270   34.7800 C.3   196  TYR196      0.0534
     65  CG        24.1200   59.0950   35.7090 C.ar  196  TYR196     -0.0201
     66  CD1       23.9430   57.7910   36.1880 C.ar  196  TYR196     -0.0009
     67  CD2       25.3130   59.7540   36.0120 C.ar  196  TYR196     -0.0009
     68  CE1       24.9380   57.1610   36.9360 C.ar  196  TYR196      0.0417
     69  CE2       26.3150   59.1310   36.7500 C.ar  196  TYR196      0.0417
     70  CZ        26.1230   57.8350   37.2040 C.ar  196  TYR196      0.1957
     71  OH        27.1410   57.2050   37.8920 O.3   196  TYR196     -0.2866
     72  N         33.0830   58.0430   33.9040 N.3   222  GLU222     -0.1245
     73  CA        31.9250   57.5180   34.6120 C.3   222  GLU222      0.1567
     74  C         30.6520   57.9610   33.9490 C.2   222  GLU222      0.2260
     75  O         30.4850   59.1360   33.6410 O.2   222  GLU222     -0.2867
     76  CB        31.8830   57.9660   36.0680 C.3   222  GLU222      0.0388
     77  CG        30.8080   57.2420   36.8840 C.3   222  GLU222      0.1160
     78  CD        30.6640   57.8100   38.2770 C.2   222  GLU222      0.3649
     79  OE1       29.5380   58.2190   38.6430 O.co2 222  GLU222     -0.2457
     80  OE2       31.6810   57.8600   39.0060 O.co2 222  GLU222     -0.2457
     81  N         21.0140   59.7420   40.0270 N.3   229  ASP229     -0.1225
     82  CA        21.2250   59.2640   41.3910 C.3   229  ASP229      0.1805
     83  C         21.6560   57.7880   41.3900 C.2   229  ASP229      0.2598
     84  O         21.7740   57.1640   42.4490 O.2   229  ASP229     -0.2718
     85  CB        19.9670   59.4700   42.2440 C.3   229  ASP229      0.1424
     86  CG        18.8150   58.5650   41.8340 C.2   229  ASP229      0.3668
     87  OD1       18.7490   58.1380   40.6590 O.co2 229  ASP229     -0.2456
     88  OD2       17.9620   58.2840   42.7000 O.co2 229  ASP229     -0.2456
     89  N         21.8820   57.2440   40.1960 N.am  230  GLY230     -0.1957
     90  CA        22.2980   55.8550   40.0620 C.3   230  GLY230      0.1869
     91  C         21.1680   54.8410   40.1050 C.2   230  GLY230      0.2309
     92  O         21.4150   53.6400   40.2580 O.2   230  GLY230     -0.2863
     93  N         29.1070   53.0400   35.1610 N.3   256  TRP256     -0.1241
     94  CA        28.8330   52.9040   36.5850 C.3   256  TRP256      0.1605
     95  C         27.5770   52.0100   36.6800 C.2   256  TRP256      0.2264
     96  O         26.5550   52.3570   36.0970 O.2   256  TRP256     -0.2867
     97  CB        28.5190   54.2840   37.1600 C.3   256  TRP256      0.0550
     98  CG        28.3990   54.3260   38.6510 C.ar  256  TRP256      0.0003
     99  CD1       27.2460   54.3140   39.3830 C.ar  256  TRP256      0.0946
    100  CD2       29.4710   54.4440   39.5890 C.ar  256  TRP256      0.0152
    101  NE1       27.5360   54.4280   40.7200 N.ar  256  TRP256     -0.2442
    102  CE2       28.8950   54.5120   40.8750 C.ar  256  TRP256      0.0810
    103  CE3       30.8700   54.5050   39.4680 C.ar  256  TRP256      0.0012
    104  CZ2       29.6660   54.6390   42.0380 C.ar  256  TRP256      0.0191
    105  CZ3       31.6390   54.6320   40.6240 C.ar  256  TRP256      0.0001
    106  CH2       31.0330   54.6970   41.8900 C.ar  256  TRP256      0.0015
    107  N         24.4870   46.4000   44.1310 N.3   261  LYS261     -0.1245
    108  CA        23.6470   47.1410   45.0630 C.3   261  LYS261      0.1561
    109  C         22.2480   47.2210   44.4530 C.2   261  LYS261      0.2260
    110  O         22.0910   47.1650   43.2300 O.2   261  LYS261     -0.2867
    111  CB        24.1930   48.5580   45.2950 C.3   261  LYS261      0.0271
    112  CG        23.2190   49.4900   46.0080 C.3   261  LYS261      0.0035
    113  CD        23.8930   50.7870   46.4300 C.3   261  LYS261      0.0206
    114  CE        22.8830   51.7690   47.0050 C.3   261  LYS261      0.1093
    115  NZ        23.5890   52.9440   47.5970 N.3   261  LYS261     -0.1314
    116  N         20.1130   49.0610   43.0850 N.3   263  GLU263     -0.1245
    117  CA        19.9170   50.3200   42.3640 C.3   263  GLU263      0.1567
    118  C         20.1080   50.0020   40.8800 C.2   263  GLU263      0.2260
    119  O         20.8520   49.0840   40.5220 O.2   263  GLU263     -0.2867
    120  CB        20.8760   51.4230   42.8460 C.3   263  GLU263      0.0388
    121  CG        22.3620   51.1750   42.5820 C.3   263  GLU263      0.1160
    122  CD        23.2340   52.3480   43.0230 C.2   263  GLU263      0.3649
    123  OE1       22.8010   53.1260   43.9030 O.co2 263  GLU263     -0.2457
    124  OE2       24.3540   52.4980   42.4910 O.co2 263  GLU263     -0.2457
@<TRIPOS>BOND
     1    62    63    2
     2    62    61    1
     3    60    61    1
     4    61    64    1
     5    75    74    2
     6    72    73    1
     7    74    73    1
     8    73    76    1
     9    64    65    1
    10    93    94    1
    11    65    67   ar
    12    65    66   ar
    13    67    69   ar
    14    76    77    1
    15    96    95    2
    16    66    68   ar
    17    94    95    1
    18    94    97    1
    19    69    70   ar
    20    77    78    1
    21    68    70   ar
    22    97    98    1
    23    70    71    1
    24    78    79   ar
    25    78    80   ar
    26    98    99   ar
    27    98   100   ar
    28    99   101   ar
    29   103   100   ar
    30   103   105   ar
    31   100   102   ar
    32    81    82    1
    33    90    91    1
    34    90    89    1
    35    91    92    2
    36    89    83   am
    37   119   118    2
    38   105   106   ar
    39    87    86   ar
    40   101   102   ar
    41   102   104   ar
    42   118   117    1
    43    83    82    1
    44    83    84    2
    45    82    85    1
    46     1     2    1
    47    86    85    1
    48    86    88   ar
    49    48    46   ar
    50    48    49   ar
    51   106   104   ar
    52    46    45   ar
    53   117   120    1
    54   117   116    1
    55   124   122   ar
    56     2     5    1
    57     2     3    1
    58   121   120    1
    59   121   122    1
    60    49    47   ar
    61   122   123   ar
    62     5     6    1
    63   110   109    2
    64     7     6   ar
    65     7     9   ar
    66    45    47   ar
    67    45    44    1
    68     3     4    2
    69     3    12   am
    70    58    56   ar
    71    58    59   ar
    72    40    41    1
    73     6     8   ar
    74    41    44    1
    75    41    42    1
    76   107   108    1
    77    56    55   ar
    78     9    11   ar
    79   109   108    1
    80    12    13    1
    81    59    57   ar
    82   108   111    1
    83    42    43    2
    84   111   112    1
    85     8    10   ar
    86    13    14    1
    87    13    16    1
    88    20    18   ar
    89    20    21   ar
    90    55    57   ar
    91    55    54    1
    92    18    17   ar
    93    11    10   ar
    94    51    50    1
    95    51    54    1
    96    51    52    1
    97   112   113    1
    98    21    23   ar
    99    21    19   ar
   100    14    15    2
   101    17    16    1
   102    17    19   ar
   103   113   114    1
   104    23    25   ar
   105    52    53    2
   106    19    22   ar
   107   114   115    1
   108    25    24   ar
   109    22    24   ar
   110    38    36   ar
   111    38    39   ar
   112    29    28    2
   113    36    33   ar
   114    28    27    1
   115    39    37   ar
   116    30    31    1
   117    30    27    1
   118    33    31   ar
   119    33    35   ar
   120    31    32   ar
   121    27    26    1
   122    37    35   ar
   123    35    34   ar
   124    32    34   ar
