@<TRIPOS>MOLECULE
tmp/1tvpA00.pdb
 135 134 0 0 0
SMALL
GASTEIGER

@<TRIPOS>ATOM
      1  N         64.4130   53.9400   47.8340 N.3    28  TRP28      -0.1241
      2  CA        64.8680   54.5480   46.5810 C.3    28  TRP28       0.1605
      3  C         65.6920   55.8120   46.8800 C.2    28  TRP28       0.2264
      4  O         65.2480   56.6840   47.6330 O.2    28  TRP28      -0.2867
      5  CB        63.6460   55.0150   45.7970 C.3    28  TRP28       0.0550
      6  CG        62.7830   53.9620   45.2220 C.ar   28  TRP28       0.0003
      7  CD1       61.7400   53.3200   45.8320 C.ar   28  TRP28       0.0946
      8  CD2       62.8250   53.4760   43.8790 C.ar   28  TRP28       0.0152
      9  NE1       61.1310   52.4660   44.9460 N.ar   28  TRP28      -0.2442
     10  CE2       61.7740   52.5420   43.7390 C.ar   28  TRP28       0.0810
     11  CE3       63.6450   53.7420   42.7750 C.ar   28  TRP28       0.0012
     12  CZ2       61.5200   51.8750   42.5390 C.ar   28  TRP28       0.0191
     13  CZ3       63.3930   53.0790   41.5790 C.ar   28  TRP28       0.0001
     14  CH2       62.3370   52.1550   41.4710 C.ar   28  TRP28       0.0015
     15  N         68.8920   49.7820   41.4890 N.3   100  HIS100     -0.1241
     16  CA        67.4520   49.6700   41.7240 C.3   100  HIS100      0.1621
     17  C         66.5890   49.9370   40.5030 C.2   100  HIS100      0.2264
     18  O         65.9150   50.9640   40.3920 O.2   100  HIS100     -0.2867
     19  CB        67.0770   50.5540   42.9120 C.3   100  HIS100      0.0745
     20  CG        65.9060   50.0400   43.6780 C.ar  100  HIS100      0.0817
     21  ND1       66.0030   48.9860   44.5610 N.ar  100  HIS100     -0.2268
     22  CD2       64.6010   50.3960   43.6570 C.ar  100  HIS100      0.1154
     23  CE1       64.8070   48.7160   45.0510 C.ar  100  HIS100      0.1986
     24  NE2       63.9380   49.5560   44.5180 N.ar  100  HIS100     -0.2212
     25  N         63.7810   48.0890   37.3480 N.3   102  HIS102     -0.1241
     26  CA        62.7570   47.1430   36.9210 C.3   102  HIS102      0.1621
     27  C         62.9430   47.0750   35.4010 C.2   102  HIS102      0.2264
     28  O         62.1580   46.4330   34.6970 O.2   102  HIS102     -0.2867
     29  CB        61.3430   47.6690   37.2010 C.3   102  HIS102      0.0745
     30  CG        60.9430   47.6320   38.6430 C.ar  102  HIS102      0.0817
     31  ND1       61.0440   46.4950   39.4150 N.ar  102  HIS102     -0.2268
     32  CD2       60.4180   48.5870   39.4470 C.ar  102  HIS102      0.1154
     33  CE1       60.6020   46.7520   40.6330 C.ar  102  HIS102      0.1986
     34  NE2       60.2140   48.0140   40.6790 N.ar  102  HIS102     -0.2212
     35  N         64.8450   44.2000   40.4770 N.3   135  GLU135     -0.1245
     36  CA        63.6830   43.3750   40.2090 C.3   135  GLU135      0.1567
     37  C         63.1620   43.2650   38.7910 C.2   135  GLU135      0.2260
     38  O         62.3660   44.1040   38.3420 O.2   135  GLU135     -0.2867
     39  CB        62.5170   43.8160   41.1070 C.3   135  GLU135      0.0388
     40  CG        62.5880   43.3090   42.5410 C.3   135  GLU135      0.1160
     41  CD        61.3710   43.6970   43.3820 C.2   135  GLU135      0.3649
     42  OE1       60.5590   44.5530   42.9560 O.co2 135  GLU135     -0.2457
     43  OE2       61.2350   43.1420   44.4910 O.co2 135  GLU135     -0.2457
     44  N         59.6370   39.9780   39.8950 N.3   172  TRP172     -0.1241
     45  CA        60.0440   40.6940   41.1010 C.3   172  TRP172      0.1605
     46  C         60.9970   39.8360   41.9360 C.2   172  TRP172      0.2264
     47  O         60.8810   39.7750   43.1540 O.2   172  TRP172     -0.2867
     48  CB        58.8430   41.1050   41.9540 C.3   172  TRP172      0.0550
     49  CG        57.8380   41.9970   41.2810 C.ar  172  TRP172      0.0003
     50  CD1       57.9530   43.3420   41.0430 C.ar  172  TRP172      0.0946
     51  CD2       56.5310   41.6220   40.8400 C.ar  172  TRP172      0.0152
     52  NE1       56.7920   43.8240   40.4870 N.ar  172  TRP172     -0.2442
     53  CE2       55.9020   42.7930   40.3530 C.ar  172  TRP172      0.0810
     54  CE3       55.8260   40.4130   40.8120 C.ar  172  TRP172      0.0012
     55  CZ2       54.5960   42.7880   39.8450 C.ar  172  TRP172      0.0191
     56  CZ3       54.5230   40.4060   40.3060 C.ar  172  TRP172      0.0001
     57  CH2       53.9240   41.5870   39.8310 C.ar  172  TRP172      0.0015
     58  N         61.3600   36.5270   42.2140 N.3   174  GLN174     -0.1245
     59  CA        60.7090   35.4280   42.9070 C.3   174  GLN174      0.1566
     60  C         61.1170   34.1240   42.2380 C.2   174  GLN174      0.2260
     61  O         61.2740   33.1010   42.9030 O.2   174  GLN174     -0.2867
     62  CB        59.1900   35.5490   42.7780 C.3   174  GLN174      0.0367
     63  CG        58.5900   36.6310   43.6460 C.3   174  GLN174      0.0905
     64  CD        57.1570   36.9680   43.2690 C.2   174  GLN174      0.2608
     65  OE1       56.4860   36.2240   42.5370 O.2   174  GLN174     -0.2717
     66  NE2       56.6860   38.1170   43.7460 N.am  174  GLN174     -0.0878
     67  N         57.4860   39.3260   50.5590 N.3   196  TYR196     -0.1241
     68  CA        56.7920   40.1710   51.5210 C.3   196  TYR196      0.1605
     69  C         55.9930   39.1710   52.3580 C.2   196  TYR196      0.2264
     70  O         55.1580   38.4440   51.8180 O.2   196  TYR196     -0.2867
     71  CB        55.8700   41.1840   50.8390 C.3   196  TYR196      0.0534
     72  CG        56.5210   42.5350   50.7060 C.ar  196  TYR196     -0.0201
     73  CD1       56.1420   43.5890   51.5340 C.ar  196  TYR196     -0.0009
     74  CD2       57.5130   42.7610   49.7560 C.ar  196  TYR196     -0.0009
     75  CE1       56.7320   44.8450   51.4150 C.ar  196  TYR196      0.0417
     76  CE2       58.1200   44.0230   49.6270 C.ar  196  TYR196      0.0417
     77  CZ        57.7170   45.0570   50.4600 C.ar  196  TYR196      0.1957
     78  OH        58.2710   46.3160   50.3300 O.3   196  TYR196     -0.2866
     79  N         52.2530   38.5320   52.0020 N.3   199  THR199     -0.1203
     80  CA        51.7630   38.0610   50.7110 C.3   199  THR199      0.1994
     81  C         52.3140   36.7080   50.2460 C.2   199  THR199      0.2617
     82  O         51.5720   35.8570   49.7470 O.2   199  THR199     -0.2717
     83  CB        52.0560   39.1340   49.6190 C.3   199  THR199      0.1784
     84  OG1       51.3200   40.3300   49.9160 O.3   199  THR199     -0.2211
     85  CG2       51.6740   38.6380   48.2180 C.3   199  THR199      0.0376
     86  N         53.6140   36.5200   50.4270 N.am  200  HIS200     -0.1975
     87  CA        54.2980   35.2990   50.0240 C.3   200  HIS200      0.1656
     88  C         54.5890   34.3390   51.1730 C.2   200  HIS200      0.2291
     89  O         55.2270   34.7110   52.1600 O.2   200  HIS200     -0.2864
     90  CB        55.5920   35.6960   49.3100 C.3   200  HIS200      0.0771
     91  CG        55.4060   36.7710   48.2810 C.ar  200  HIS200      0.0820
     92  ND1       55.9850   38.0170   48.3950 N.ar  200  HIS200     -0.2267
     93  CD2       54.7070   36.7870   47.1210 C.ar  200  HIS200      0.1154
     94  CE1       55.6530   38.7550   47.3490 C.ar  200  HIS200      0.1986
     95  NE2       54.8750   38.0310   46.5600 N.ar  200  HIS200     -0.2212
     96  N         56.3780   30.1340   48.0090 N.3   204  TYR204     -0.1241
     97  CA        57.5040   30.9330   47.5370 C.3   204  TYR204      0.1605
     98  C         58.7900   30.4140   48.1580 C.2   204  TYR204      0.2264
     99  O         59.8470   30.4690   47.5310 O.2   204  TYR204     -0.2867
    100  CB        57.2640   32.4220   47.7810 C.3   204  TYR204      0.0534
    101  CG        56.1710   32.9530   46.8810 C.ar  204  TYR204     -0.0201
    102  CD1       54.8370   32.8830   47.2730 C.ar  204  TYR204     -0.0009
    103  CD2       56.4610   33.4680   45.6090 C.ar  204  TYR204     -0.0009
    104  CE1       53.8170   33.3040   46.4340 C.ar  204  TYR204      0.0417
    105  CE2       55.4350   33.8990   44.7520 C.ar  204  TYR204      0.0417
    106  CZ        54.1170   33.8090   45.1820 C.ar  204  TYR204      0.1957
    107  OH        53.0830   34.2320   44.3820 O.3   204  TYR204     -0.2866
    108  N         66.0090   42.0680   49.4270 N.3   222  GLU222     -0.1245
    109  CA        64.8660   42.9240   49.7410 C.3   222  GLU222      0.1567
    110  C         63.7000   42.0950   50.2060 C.2   222  GLU222      0.2260
    111  O         63.3200   41.1410   49.5400 O.2   222  GLU222     -0.2867
    112  CB        64.4210   43.7290   48.5310 C.3   222  GLU222      0.0388
    113  CG        63.4150   44.8250   48.8690 C.3   222  GLU222      0.1160
    114  CD        63.0230   45.6250   47.6570 C.2   222  GLU222      0.3649
    115  OE1       61.8230   45.6490   47.3350 O.co2 222  GLU222     -0.2457
    116  OE2       63.9160   46.2060   47.0100 O.co2 222  GLU222     -0.2457
    117  N         52.4320   42.7740   50.2760 N.3   228  ALA228     -0.1245
    118  CA        53.1410   43.2980   49.1190 C.3   228  ALA228      0.1562
    119  C         52.6020   44.6840   48.7440 C.2   228  ALA228      0.2260
    120  O         53.3040   45.4520   48.1020 O.2   228  ALA228     -0.2867
    121  CB        53.0260   42.3420   47.9400 C.3   228  ALA228      0.0290
    122  N         63.2310   45.9520   53.6810 N.3   256  TRP256     -0.1241
    123  CA        62.7040   47.1580   53.0310 C.3   256  TRP256      0.1605
    124  C         61.6810   47.7100   54.0320 C.2   256  TRP256      0.2264
    125  O         60.7350   47.0010   54.3540 O.2   256  TRP256     -0.2867
    126  CB        61.9770   46.7630   51.7370 C.3   256  TRP256      0.0550
    127  CG        61.5140   47.9100   50.8920 C.ar  256  TRP256      0.0003
    128  CD1       60.2500   48.4440   50.8380 C.ar  256  TRP256      0.0946
    129  CD2       62.2970   48.6410   49.9440 C.ar  256  TRP256      0.0152
    130  NE1       60.2050   49.4590   49.9090 N.ar  256  TRP256     -0.2442
    131  CE2       61.4470   49.5940   49.3430 C.ar  256  TRP256      0.0810
    132  CE3       63.6400   48.5830   49.5400 C.ar  256  TRP256      0.0012
    133  CZ2       61.8940   50.4820   48.3570 C.ar  256  TRP256      0.0191
    134  CZ3       64.0850   49.4660   48.5580 C.ar  256  TRP256      0.0001
    135  CH2       63.2140   50.4000   47.9800 C.ar  256  TRP256      0.0015
@<TRIPOS>BOND
     1    28    27    2
     2    27    26    1
     3    26    29    1
     4    26    25    1
     5    29    30    1
     6    38    37    2
     7    30    31   ar
     8    30    32   ar
     9    37    36    1
    10    31    33   ar
    11    32    34   ar
    12    57    55   ar
    13    57    56   ar
    14    55    53   ar
    15    44    45    1
    16    36    35    1
    17    36    39    1
    18    56    54   ar
    19    53    52   ar
    20    53    51   ar
    21    18    17    2
    22    52    50   ar
    23    17    16    1
    24    33    34   ar
    25    54    51   ar
    26    51    49   ar
    27    50    49   ar
    28    45    46    1
    29    45    48    1
    30    39    40    1
    31    49    48    1
    32    14    13   ar
    33    14    12   ar
    34    15    16    1
    35    13    11   ar
    36    16    19    1
    37    46    47    2
    38    58    59    1
    39    60    61    2
    40    60    59    1
    41    65    64    2
    42    12    10   ar
    43    40    41    1
    44    11     8   ar
    45    62    59    1
    46    62    63    1
    47    19    20    1
    48    42    41   ar
    49    64    63    1
    50    64    66   am
    51    41    43   ar
    52    22    20   ar
    53    22    24   ar
    54    20    21   ar
    55    10     8   ar
    56    10     9   ar
    57     8     6   ar
    58   107   106    1
    59    24    23   ar
    60    21    23   ar
    61   105   106   ar
    62   105   103   ar
    63     9     7   ar
    64   106   104   ar
    65     6     5    1
    66     6     7   ar
    67   103   101   ar
    68     5     2    1
    69   104   102   ar
    70    95    93   ar
    71    95    94   ar
    72     2     3    1
    73     2     1    1
    74     3     4    2
    75   101   102   ar
    76   101   100    1
    77   116   114   ar
    78    93    91   ar
    79   115   114   ar
    80    94    92   ar
    81    99    98    2
    82    97   100    1
    83    97    96    1
    84    97    98    1
    85   114   113    1
    86   121   118    1
    87   135   133   ar
    88   135   134   ar
    89   120   119    2
    90    85    83    1
    91    91    92   ar
    92    91    90    1
    93   133   131   ar
    94   112   113    1
    95   112   109    1
    96   134   132   ar
    97   119   118    1
    98   118   117    1
    99    90    87    1
   100   131   130   ar
   101   131   129   ar
   102   108   109    1
   103   111   110    2
   104   132   129   ar
   105    83    84    1
   106    83    80    1
   107    76    74   ar
   108    76    77   ar
   109   109   110    1
   110    82    81    2
   111    74    72   ar
   112   130   128   ar
   113   129   127   ar
   114    87    86    1
   115    87    88    1
   116    81    86   am
   117    81    80    1
   118    78    77    1
   119    77    75   ar
   120    67    68    1
   121    72    71    1
   122    72    73   ar
   123    80    79    1
   124   128   127   ar
   125    71    68    1
   126   127   126    1
   127    88    89    2
   128    75    73   ar
   129    68    69    1
   130   126   123    1
   131    70    69    2
   132   123   122    1
   133   123   124    1
   134   124   125    2
