@<TRIPOS>MOLECULE
tmp/1tvrA00.pdb
 153 152 0 0 0
SMALL
GASTEIGER

@<TRIPOS>ATOM
      1  N        140.4350  -16.6260   76.0390 N.3    95  PRO95      -0.2116
      2  CA       139.7960  -17.5120   75.0550 C.3    95  PRO95       0.1372
      3  C        138.8330  -18.4900   75.7800 C.2    95  PRO95       0.2244
      4  O        139.1980  -19.6290   76.0660 O.2    95  PRO95      -0.2868
      5  CB       141.0060  -18.2230   74.4070 C.3    95  PRO95       0.0268
      6  CG       142.0820  -18.1650   75.4730 C.3    95  PRO95       0.0207
      7  CD       141.9020  -16.7760   76.0300 C.3    95  PRO95       0.0892
      8  N        136.6540  -22.6260   71.3280 N.3   100  LEU100     -0.1231
      9  CA       137.7080  -23.4780   70.7740 C.3   100  LEU100      0.1693
     10  C        137.2490  -24.6710   69.9160 C.2   100  LEU100      0.2592
     11  O        136.2670  -25.3530   70.2600 O.2   100  LEU100     -0.2718
     12  CB       138.5870  -24.0120   71.9080 C.3   100  LEU100      0.0284
     13  CG       139.2140  -22.8970   72.7260 C.3   100  LEU100      0.0019
     14  CD1      140.3680  -23.3930   73.5630 C.3   100  LEU100      0.0001
     15  CD2      139.7210  -21.8510   71.7850 C.3   100  LEU100      0.0001
     16  N        137.9530  -24.8970   68.7930 N.am  101  LYS101     -0.1966
     17  CA       137.6850  -26.0360   67.8820 C.3   101  LYS101      0.1728
     18  C        138.7030  -27.1370   68.2530 C.2   101  LYS101      0.2616
     19  O        139.7640  -26.8490   68.8470 O.2   101  LYS101     -0.2715
     20  CB       137.8610  -25.6530   66.3960 C.3   101  LYS101      0.0311
     21  CG       137.0730  -24.4180   65.9150 C.3   101  LYS101      0.0038
     22  CD       137.3280  -24.1190   64.4140 C.3   101  LYS101      0.0206
     23  CE       137.0770  -22.6230   64.0380 C.3   101  LYS101      0.1093
     24  NZ       137.1660  -22.2590   62.5550 N.3   101  LYS101     -0.1314
     25  N        138.4070  -28.3790   67.8860 N.am  102  LYS102     -0.1963
     26  CA       139.3000  -29.4790   68.2270 C.3   102  LYS102      0.1728
     27  C        140.5360  -29.6290   67.3620 C.2   102  LYS102      0.2616
     28  O        140.4430  -29.6970   66.1500 O.2   102  LYS102     -0.2715
     29  CB       138.5290  -30.8010   68.2550 C.3   102  LYS102      0.0311
     30  CG       137.9850  -31.1500   69.6300 C.3   102  LYS102      0.0038
     31  CD       136.8810  -32.2160   69.6230 C.3   102  LYS102      0.0206
     32  CE       135.6310  -31.8150   68.8270 C.3   102  LYS102      0.1093
     33  NZ       135.6670  -32.6140   67.5640 N.3   102  LYS102     -0.1314
     34  N        141.6960  -29.5940   67.9890 N.am  103  LYS103     -0.1977
     35  CA       142.9520  -29.8110   67.2740 C.3   103  LYS103      0.1596
     36  C        143.4110  -31.1640   67.8940 C.2   103  LYS103      0.2287
     37  O        143.3740  -31.2880   69.1310 O.2   103  LYS103     -0.2864
     38  CB       143.9560  -28.6710   67.5450 C.3   103  LYS103      0.0298
     39  CG       143.4740  -27.2790   67.1430 C.3   103  LYS103      0.0038
     40  CD       142.7320  -27.2350   65.7950 C.3   103  LYS103      0.0206
     41  CE       142.4380  -25.7660   65.3830 C.3   103  LYS103      0.1093
     42  NZ       141.5670  -25.5310   64.1670 N.3   103  LYS103     -0.1314
     43  N        147.5920  -31.1760   71.6520 N.3   106  VAL106     -0.1245
     44  CA       148.0100  -29.8590   72.0480 C.3   106  VAL106      0.1561
     45  C        148.9110  -29.9360   73.2180 C.2   106  VAL106      0.2260
     46  O        148.4820  -30.2250   74.3250 O.2   106  VAL106     -0.2867
     47  CB       146.8500  -29.0210   72.4810 C.3   106  VAL106      0.0252
     48  CG1      147.3590  -27.6090   72.8310 C.3   106  VAL106      0.0019
     49  CG2      145.7410  -29.0350   71.4050 C.3   106  VAL106      0.0019
     50  N        148.4190  -24.4790   65.4530 N.3   179  VAL179     -0.1245
     51  CA       148.0570  -23.3560   66.3230 C.3   179  VAL179      0.1561
     52  C        148.9000  -23.1410   67.5930 C.2   179  VAL179      0.2260
     53  O        149.2320  -24.0870   68.2910 O.2   179  VAL179     -0.2867
     54  CB       146.5780  -23.5210   66.7530 C.3   179  VAL179      0.0252
     55  CG1      146.1880  -22.4870   67.7860 C.3   179  VAL179      0.0019
     56  CG2      145.6730  -23.4160   65.5490 C.3   179  VAL179      0.0019
     57  N        149.4320  -20.3650   71.1300 N.3   181  TYR181     -0.1241
     58  CA       148.7870  -19.3550   71.9680 C.3   181  TYR181      0.1605
     59  C        149.6410  -19.2200   73.1930 C.2   181  TYR181      0.2264
     60  O        149.7920  -20.1580   73.9480 O.2   181  TYR181     -0.2867
     61  CB       147.3990  -19.8060   72.3710 C.3   181  TYR181      0.0534
     62  CG       146.7480  -18.9860   73.4450 C.ar  181  TYR181     -0.0201
     63  CD1      147.0370  -19.2000   74.7860 C.ar  181  TYR181     -0.0009
     64  CD2      145.7910  -18.0140   73.1220 C.ar  181  TYR181     -0.0009
     65  CE1      146.3950  -18.4670   75.7770 C.ar  181  TYR181      0.0417
     66  CE2      145.1360  -17.2690   74.1120 C.ar  181  TYR181      0.0417
     67  CZ       145.4450  -17.5030   75.4370 C.ar  181  TYR181      0.1957
     68  OH       144.8100  -16.7780   76.4150 O.3   181  TYR181     -0.2866
     69  N        150.7270  -22.9360   74.2170 N.3   188  TYR188     -0.1227
     70  CA       149.9040  -24.0390   73.8230 C.3   188  TYR188      0.1736
     71  C        150.0560  -24.1670   72.3160 C.2   188  TYR188      0.2595
     72  O        149.7640  -23.2330   71.5630 O.2   188  TYR188     -0.2718
     73  CB       148.4630  -23.7850   74.2640 C.3   188  TYR188      0.0548
     74  CG       148.3180  -23.7450   75.7920 C.ar  188  TYR188     -0.0200
     75  CD1      148.8540  -22.6730   76.5140 C.ar  188  TYR188     -0.0009
     76  CD2      147.6560  -24.7780   76.4740 C.ar  188  TYR188     -0.0009
     77  CE1      148.7350  -22.6310   77.9080 C.ar  188  TYR188      0.0417
     78  CE2      147.5380  -24.7370   77.8710 C.ar  188  TYR188      0.0417
     79  CZ       148.0790  -23.6630   78.5870 C.ar  188  TYR188      0.1957
     80  OH       147.9690  -23.6210   79.9430 O.3   188  TYR188     -0.2866
     81  N        150.5630  -25.3040   71.9130 N.am  189  VAL189     -0.1966
     82  CA       150.6920  -25.6360   70.4940 C.3   189  VAL189      0.1727
     83  C        149.6670  -26.7100   70.2340 C.2   189  VAL189      0.2616
     84  O        149.4560  -27.6100   71.0610 O.2   189  VAL189     -0.2715
     85  CB       152.1090  -26.1180   70.1830 C.3   189  VAL189      0.0290
     86  CG1      152.5280  -25.8360   68.7360 C.3   189  VAL189      0.0023
     87  CG2      153.1740  -25.4530   71.0560 C.3   189  VAL189      0.0023
     88  N        149.0040  -26.6440   69.1100 N.am  190  GLY190     -0.1955
     89  CA       147.9580  -27.6170   68.9040 C.3   190  GLY190      0.1869
     90  C        147.6110  -27.9280   67.4570 C.2   190  GLY190      0.2309
     91  O        146.7150  -27.3210   66.8500 O.2   190  GLY190     -0.2863
     92  N        143.4780  -29.4160   81.8340 N.3   227  PHE227     -0.1241
     93  CA       143.9730  -28.0560   81.9110 C.3   227  PHE227      0.1605
     94  C        143.2180  -27.0620   82.7640 C.2   227  PHE227      0.2264
     95  O        142.1870  -26.5440   82.3580 O.2   227  PHE227     -0.2867
     96  CB       144.2540  -27.5380   80.5100 C.3   227  PHE227      0.0534
     97  CG       145.2440  -28.3900   79.7570 C.ar  227  PHE227     -0.0203
     98  CD1      146.5180  -28.6220   80.2870 C.ar  227  PHE227     -0.0042
     99  CD2      144.8980  -29.0000   78.5520 C.ar  227  PHE227     -0.0042
    100  CE1      147.4390  -29.4510   79.6290 C.ar  227  PHE227     -0.0003
    101  CE2      145.8150  -29.8320   77.8840 C.ar  227  PHE227     -0.0003
    102  CZ       147.0880  -30.0540   78.4280 C.ar  227  PHE227     -0.0000
    103  N        144.0280  -23.8320   83.7040 N.3   229  TRP229     -0.1241
    104  CA       144.0990  -22.4210   83.3260 C.3   229  TRP229      0.1605
    105  C        142.8450  -21.5810   83.4780 C.2   229  TRP229      0.2264
    106  O        141.7470  -21.9540   83.0390 O.2   229  TRP229     -0.2867
    107  CB       144.7140  -22.2810   81.9320 C.3   229  TRP229      0.0550
    108  CG       144.2670  -21.1190   81.1530 C.ar  229  TRP229      0.0003
    109  CD1      144.8950  -19.9230   81.0360 C.ar  229  TRP229      0.0946
    110  CD2      143.1120  -21.0550   80.3250 C.ar  229  TRP229      0.0152
    111  NE1      144.1920  -19.1080   80.1830 N.ar  229  TRP229     -0.2442
    112  CE2      143.0990  -19.7820   79.7280 C.ar  229  TRP229      0.0810
    113  CE3      142.0820  -21.9500   80.0360 C.ar  229  TRP229      0.0012
    114  CZ2      142.1060  -19.3790   78.8540 C.ar  229  TRP229      0.0191
    115  CZ3      141.0820  -21.5550   79.1650 C.ar  229  TRP229      0.0001
    116  CH2      141.1000  -20.2750   78.5850 C.ar  229  TRP229      0.0015
    117  N        140.7240  -28.0560   80.6800 N.3   234  LEU234     -0.1231
    118  CA       140.6970  -28.3680   79.2660 C.3   234  LEU234      0.1693
    119  C        141.2960  -29.7250   78.8700 C.2   234  LEU234      0.2592
    120  O        142.4040  -30.1120   79.3000 O.2   234  LEU234     -0.2718
    121  CB       141.3370  -27.2120   78.4960 C.3   234  LEU234      0.0284
    122  CG       140.7320  -25.8450   78.8270 C.3   234  LEU234      0.0019
    123  CD1      141.8520  -24.8820   79.0330 C.3   234  LEU234      0.0001
    124  CD2      139.7830  -25.3810   77.7440 C.3   234  LEU234      0.0001
    125  N        140.4960  -30.4350   78.0720 N.am  235  HIS235     -0.1962
    126  CA       140.8010  -31.7700   77.5330 C.3   235  HIS235      0.1772
    127  C        140.7020  -31.7050   75.9810 C.2   235  HIS235      0.2462
    128  O        139.9380  -30.8960   75.4490 O.2   235  HIS235     -0.2730
    129  CB       139.7750  -32.8180   78.0440 C.3   235  HIS235      0.0785
    130  CG       139.5170  -32.8040   79.5300 C.ar  235  HIS235      0.0821
    131  ND1      138.2420  -32.7680   80.0620 N.ar  235  HIS235     -0.2267
    132  CD2      140.3610  -32.8950   80.5920 C.ar  235  HIS235      0.1154
    133  CE1      138.3090  -32.8450   81.3780 C.ar  235  HIS235      0.1986
    134  NE2      139.5820  -32.9200   81.7270 N.ar  235  HIS235     -0.2212
    135  N        141.3730  -32.6330   75.2560 N.am  236  PRO236     -0.2727
    136  CA       141.3740  -32.6940   73.7860 C.3   236  PRO236      0.1402
    137  C        140.0270  -32.5930   73.0830 C.2   236  PRO236      0.2269
    138  O        139.9660  -32.5730   71.8580 O.2   236  PRO236     -0.2865
    139  CB       142.0660  -34.0300   73.4930 C.3   236  PRO236      0.0296
    140  CG       141.8540  -34.8160   74.7370 C.3   236  PRO236      0.0237
    141  CD       142.1160  -33.7870   75.7890 C.3   236  PRO236      0.0939
    142  N        133.6010  -28.7660   72.3730 N.3   318  TYR318     -0.1241
    143  CA       134.2830  -27.7610   71.5840 C.3   318  TYR318      0.1605
    144  C        133.5650  -27.4260   70.2780 C.2   318  TYR318      0.2264
    145  O        132.7940  -28.2110   69.7330 O.2   318  TYR318     -0.2867
    146  CB       135.7200  -28.2040   71.3520 C.3   318  TYR318      0.0534
    147  CG       136.6180  -28.1110   72.5880 C.ar  318  TYR318     -0.0201
    148  CD1      136.3020  -27.3060   73.6510 C.ar  318  TYR318     -0.0009
    149  CD2      137.8250  -28.7810   72.6490 C.ar  318  TYR318     -0.0009
    150  CE1      137.1610  -27.1660   74.7420 C.ar  318  TYR318      0.0417
    151  CE2      138.6920  -28.6450   73.7370 C.ar  318  TYR318      0.0417
    152  CZ       138.3490  -27.8400   74.7790 C.ar  318  TYR318      0.1957
    153  OH       139.1870  -27.7260   75.8760 O.3   318  TYR318     -0.2866
@<TRIPOS>BOND
     1    24    23    1
     2    23    22    1
     3    42    41    1
     4    22    21    1
     5    41    40    1
     6    50    51    1
     7    56    54    1
     8    40    39    1
     9    21    20    1
    10    28    27    2
    11    51    54    1
    12    51    52    1
    13    20    17    1
    14    54    55    1
    15    91    90    2
    16    39    38    1
    17    35    38    1
    18    35    36    1
    19    35    34    1
    20    27    34   am
    21    27    26    1
    22    90    89    1
    23    33    32    1
    24    52    53    2
    25    17    18    1
    26    17    16    1
    27    25    26    1
    28    25    18   am
    29    36    37    2
    30    26    29    1
    31    18    19    2
    32    29    30    1
    33    86    85    1
    34    16    10   am
    35    32    31    1
    36    89    88    1
    37    88    83   am
    38    31    30    1
    39   145   144    2
    40    10    11    2
    41    10     9    1
    42    85    82    1
    43    85    87    1
    44    83    82    1
    45    83    84    2
    46   144   143    1
    47    82    81    1
    48     9     8    1
    49     9    12    1
    50    57    58    1
    51   146   143    1
    52   146   147    1
    53    49    47    1
    54    72    71    2
    55   143   142    1
    56    43    44    1
    57    15    13    1
    58   138   137    2
    59    12    13    1
    60    81    71   am
    61    58    61    1
    62    58    59    1
    63    44    47    1
    64    44    45    1
    65    71    70    1
    66    61    62    1
    67    47    48    1
    68   147   149   ar
    69   147   148   ar
    70   149   151   ar
    71    13    14    1
    72   137   136    1
    73    64    62   ar
    74    64    66   ar
    75    59    60    2
    76    45    46    2
    77    62    63   ar
    78   139   136    1
    79   139   140    1
    80   148   150   ar
    81   151   152   ar
    82   136   135    1
    83    70    69    1
    84    70    73    1
    85    66    67   ar
    86    73    74    1
    87     5     2    1
    88     5     6    1
    89   140   141    1
    90   150   152   ar
    91   152   153    1
    92    63    65   ar
    93     2     3    1
    94     2     1    1
    95   135   141    1
    96   135   127   am
    97    67    65   ar
    98    67    68    1
    99   128   127    2
   100     6     7    1
   101     3     4    2
   102    74    76   ar
   103    74    75   ar
   104   127   126    1
   105     7     1    1
   106    76    78   ar
   107    75    77   ar
   108   126   129    1
   109   126   125    1
   110   124   122    1
   111    78    79   ar
   112   101   102   ar
   113   101    99   ar
   114    77    79   ar
   115   129   130    1
   116   125   119   am
   117   102   100   ar
   118   121   122    1
   119   121   118    1
   120    99    97   ar
   121   116   114   ar
   122   116   115   ar
   123    79    80    1
   124   122   123    1
   125   114   112   ar
   126   119   118    1
   127   119   120    2
   128   115   113   ar
   129   118   117    1
   130   130   131   ar
   131   130   132   ar
   132   100    98   ar
   133   112   111   ar
   134   112   110   ar
   135    97    98   ar
   136    97    96    1
   137   113   110   ar
   138   131   133   ar
   139   111   109   ar
   140   110   108   ar
   141    96    93    1
   142   132   134   ar
   143   109   108   ar
   144   108   107    1
   145   133   134   ar
   146    92    93    1
   147    93    94    1
   148   107   104    1
   149    95    94    2
   150   106   105    2
   151   104   105    1
   152   104   103    1
