@<TRIPOS>MOLECULE
tmp/1tvyB00.pdb
 233 227 0 0 0
SMALL
GASTEIGER

@<TRIPOS>ATOM
      1  N         12.7660   65.1550   35.5420 N.3    57  PRO57      -0.2102
      2  CA        12.3060   66.2400   34.6620 C.3    57  PRO57       0.1504
      3  C         13.5980   66.8970   34.1470 C.2    57  PRO57       0.2576
      4  O         14.5650   67.0770   34.9010 O.2    57  PRO57      -0.2718
      5  CB        11.4840   67.1190   35.6060 C.3    57  PRO57       0.0282
      6  CG        12.2300   66.9760   36.9170 C.3    57  PRO57       0.0208
      7  CD        12.5850   65.4960   36.9680 C.3    57  PRO57       0.0893
      8  N         13.6310   67.2720   32.8780 N.am   58  PHE58      -0.1963
      9  CA        14.8850   67.7550   32.3380 C.3    58  PHE58       0.1771
     10  C         14.8480   68.7200   31.1710 C.2    58  PHE58       0.2619
     11  O         13.9790   68.6450   30.3080 O.2    58  PHE58      -0.2715
     12  CB        15.6910   66.5090   31.9080 C.3    58  PHE58       0.0574
     13  CG        17.0370   66.7950   31.2700 C.ar   58  PHE58      -0.0200
     14  CD1       18.2120   66.7270   32.0270 C.ar   58  PHE58      -0.0042
     15  CD2       17.1430   67.0510   29.9050 C.ar   58  PHE58      -0.0042
     16  CE1       19.4820   66.9000   31.4240 C.ar   58  PHE58      -0.0003
     17  CE2       18.4000   67.2260   29.2890 C.ar   58  PHE58      -0.0003
     18  CZ        19.5720   67.1490   30.0500 C.ar   58  PHE58      -0.0000
     19  N         15.8280   69.6170   31.1660 N.am   59  ARG59      -0.1963
     20  CA        16.0590   70.5280   30.0580 C.3    59  ARG59       0.1729
     21  C         17.3490   71.2710   30.3360 C.2    59  ARG59       0.2616
     22  O         17.4730   71.9760   31.3450 O.2    59  ARG59      -0.2715
     23  CB        14.9260   71.5210   29.8270 C.3    59  ARG59       0.0348
     24  CG        15.0470   72.1670   28.4410 C.3    59  ARG59       0.0492
     25  CD        14.6060   73.6130   28.4920 C.3    59  ARG59       0.2205
     26  NE        13.2840   73.8150   27.9460 N.pl3  59  ARG59      -0.0865
     27  CZ        12.4020   74.6850   28.4260 C.cat  59  ARG59       0.5346
     28  NH1       12.6930   75.4250   29.4700 N.pl3  59  ARG59       0.1354
     29  NH2       11.2310   74.8230   27.8350 N.pl3  59  ARG59       0.1354
     30  N         18.3260   71.0590   29.4570 N.am   60  ASN60      -0.1958
     31  CA        19.6310   71.7070   29.5730 C.3    60  ASN60       0.1819
     32  C         20.3030   71.5070   30.9410 C.2    60  ASN60       0.2621
     33  O         20.7970   72.4660   31.5300 O.2    60  ASN60      -0.2715
     34  CB        19.4880   73.2100   29.2980 C.3    60  ASN60       0.1195
     35  CG        20.8290   73.9030   29.0910 C.2    60  ASN60       0.2630
     36  OD1       21.0050   75.0610   29.4820 O.2    60  ASN60      -0.2716
     37  ND2       21.7720   73.2130   28.4550 N.am   60  ASN60      -0.0877
     38  N         20.3120   70.2820   31.4590 N.am   61  ARG61      -0.1977
     39  CA        20.9780   70.0160   32.7470 C.3    61  ARG61       0.1597
     40  C         21.9150   68.8210   32.5930 C.2    61  ARG61       0.2287
     41  O         22.0610   68.0030   33.5040 O.2    61  ARG61      -0.2864
     42  CB        19.9540   69.7310   33.8650 C.3    61  ARG61       0.0334
     43  CG        19.1220   70.9450   34.3250 C.3    61  ARG61       0.0492
     44  CD        19.9750   72.0320   34.9950 C.3    61  ARG61       0.2205
     45  NE        19.1380   72.9810   35.7160 N.pl3  61  ARG61      -0.0865
     46  CZ        18.7530   72.8390   36.9860 C.cat  61  ARG61       0.5346
     47  NH1       17.9700   73.7580   37.5330 N.pl3  61  ARG61       0.1354
     48  NH2       19.1800   71.8070   37.7290 N.pl3  61  ARG61       0.1354
     49  N          9.0430   76.1080   31.4340 N.3    96  PHE96      -0.1241
     50  CA         9.2810   74.7680   31.9380 C.3    96  PHE96       0.1605
     51  C          8.0640   74.3290   32.7540 C.2    96  PHE96       0.2264
     52  O          7.3680   75.1640   33.3420 O.2    96  PHE96      -0.2867
     53  CB        10.5220   74.7570   32.8190 C.3    96  PHE96       0.0534
     54  CG        11.0590   73.3750   33.1050 C.ar   96  PHE96      -0.0203
     55  CD1       11.7880   72.6840   32.1340 C.ar   96  PHE96      -0.0042
     56  CD2       10.8410   72.7670   34.3460 C.ar   96  PHE96      -0.0042
     57  CE1       12.3010   71.3890   32.3990 C.ar   96  PHE96      -0.0003
     58  CE2       11.3420   71.4870   34.6200 C.ar   96  PHE96      -0.0003
     59  CZ        12.0760   70.7960   33.6440 C.ar   96  PHE96      -0.0000
     60  N          7.7010   71.3010   35.3690 N.3    98  ARG98      -0.1245
     61  CA         8.1900   70.1280   36.0720 C.3    98  ARG98       0.1563
     62  C          7.1750   68.9970   36.1960 C.2    98  ARG98       0.2260
     63  O          7.4200   67.8770   35.7400 O.2    98  ARG98      -0.2867
     64  CB         8.6720   70.4950   37.4820 C.3    98  ARG98       0.0307
     65  CG         8.9690   69.2630   38.3520 C.3    98  ARG98       0.0489
     66  CD         9.8130   69.6120   39.5840 C.3    98  ARG98       0.2205
     67  NE        10.0970   68.4560   40.4310 N.pl3  98  ARG98      -0.0865
     68  CZ         9.3300   68.0530   41.4400 C.cat  98  ARG98       0.5346
     69  NH1        8.2270   68.7140   41.7490 N.pl3  98  ARG98       0.1354
     70  NH2        9.6590   66.9740   42.1300 N.pl3  98  ARG98       0.1354
     71  N         14.6510   65.4200   41.0600 N.3   122  ASP122     -0.1225
     72  CA        15.2850   66.5280   40.3460 C.3   122  ASP122      0.1805
     73  C         16.6300   65.9500   39.9110 C.2   122  ASP122      0.2598
     74  O         17.1590   65.0270   40.5480 O.2   122  ASP122     -0.2718
     75  CB        15.5790   67.7190   41.2640 C.3   122  ASP122      0.1424
     76  CG        14.3340   68.4940   41.6770 C.2   122  ASP122      0.3668
     77  OD1       13.2200   68.2200   41.1750 O.co2 122  ASP122     -0.2456
     78  OD2       14.4910   69.3930   42.5240 O.co2 122  ASP122     -0.2456
     79  N         17.1870   66.5130   38.8460 N.am  123  VAL123     -0.1966
     80  CA        18.4590   66.0670   38.2720 C.3   123  VAL123      0.1727
     81  C         19.6820   66.4940   39.1060 C.2   123  VAL123      0.2616
     82  O         20.7830   65.9680   38.9160 O.2   123  VAL123     -0.2715
     83  CB        18.5890   66.6420   36.8180 C.3   123  VAL123      0.0290
     84  CG1       18.8860   68.1470   36.8930 C.3   123  VAL123      0.0023
     85  CG2       19.6690   65.9190   36.0260 C.3   123  VAL123      0.0023
     86  N         19.4770   67.4130   40.0520 N.am  124  ASP124     -0.1957
     87  CA        20.5740   67.9620   40.8530 C.3   124  ASP124      0.1840
     88  C         20.5790   67.6170   42.3490 C.2   124  ASP124      0.2621
     89  O         21.1790   68.3370   43.1500 O.2   124  ASP124     -0.2715
     90  CB        20.5560   69.4830   40.6940 C.3   124  ASP124      0.1450
     91  CG        19.1990   70.0700   41.0700 C.2   124  ASP124      0.3671
     92  OD1       18.8760   71.1930   40.6240 O.co2 124  ASP124     -0.2456
     93  OD2       18.4580   69.3810   41.8230 O.co2 124  ASP124     -0.2456
     94  N         19.9260   66.5240   42.7210 N.am  125  LEU125     -0.1977
     95  CA        19.8520   66.1190   44.1190 C.3   125  LEU125      0.1596
     96  C         20.5250   64.7620   44.2810 C.2   125  LEU125      0.2287
     97  O         20.2250   63.8300   43.5220 O.2   125  LEU125     -0.2864
     98  CB        18.3780   66.0380   44.5480 C.3   125  LEU125      0.0297
     99  CG        17.7640   67.1280   45.4570 C.3   125  LEU125      0.0022
    100  CD1       18.7200   68.2760   45.6720 C.3   125  LEU125      0.0001
    101  CD2       16.4590   67.6120   44.8530 C.3   125  LEU125      0.0001
    102  N         17.9750   68.5410   52.9800 N.3   147  MET147     -0.1245
    103  CA        18.8260   69.1260   51.9620 C.3   147  MET147      0.1570
    104  C         19.8860   70.0780   52.5180 C.2   147  MET147      0.2261
    105  O         19.5740   70.9590   53.3250 O.2   147  MET147     -0.2867
    106  CB        17.9540   69.8710   50.9630 C.3   147  MET147      0.0387
    107  CG        17.0600   68.9790   50.1000 C.3   147  MET147      0.0595
    108  SD        15.8440   70.0130   49.2410 S.3   147  MET147     -0.1393
    109  CE        14.7510   68.7720   48.5080 C.3   147  MET147      0.0692
    110  N         21.0920   72.6480   51.3890 N.3   149  LYS149     -0.1245
    111  CA        20.7090   74.0480   51.1880 C.3   149  LYS149      0.1561
    112  C         19.5960   74.4990   52.1180 C.2   149  LYS149      0.2260
    113  O         19.1550   75.6370   52.0520 O.2   149  LYS149     -0.2867
    114  CB        20.2710   74.2920   49.7400 C.3   149  LYS149      0.0271
    115  CG        18.8660   73.8190   49.4130 C.3   149  LYS149      0.0035
    116  CD        18.5760   73.9840   47.9190 C.3   149  LYS149      0.0206
    117  CE        17.0950   73.9300   47.6390 C.3   149  LYS149      0.1093
    118  NZ        16.7870   74.2470   46.2300 N.3   149  LYS149     -0.1314
    119  N          6.4930   70.0370   52.9980 N.3   159  TYR159     -0.1241
    120  CA         7.4080   70.0730   51.8530 C.3   159  TYR159      0.1605
    121  C          7.5420   68.7210   51.1610 C.2   159  TYR159      0.2264
    122  O          7.9510   67.7260   51.7680 O.2   159  TYR159     -0.2867
    123  CB         8.7960   70.5270   52.2710 C.3   159  TYR159      0.0534
    124  CG         9.6660   70.8640   51.0800 C.ar  159  TYR159     -0.0201
    125  CD1        9.3790   71.9720   50.2820 C.ar  159  TYR159     -0.0009
    126  CD2       10.7870   70.0990   50.7700 C.ar  159  TYR159     -0.0009
    127  CE1       10.1940   72.3170   49.2060 C.ar  159  TYR159      0.0417
    128  CE2       11.6160   70.4300   49.6950 C.ar  159  TYR159      0.0417
    129  CZ        11.3150   71.5430   48.9210 C.ar  159  TYR159      0.1957
    130  OH        12.1420   71.9050   47.8870 O.3   159  TYR159     -0.2866
    131  N          9.0120   68.6220   47.8300 N.3   161  GLY161     -0.1210
    132  CA         9.8310   68.8570   46.6580 C.3   161  GLY161      0.1956
    133  C         11.1470   68.1110   46.6350 C.2   161  GLY161      0.2612
    134  O         11.5550   67.5520   47.6470 O.2   161  GLY161     -0.2717
    135  N         11.8100   68.0950   45.4800 N.am  162  GLY162     -0.1956
    136  CA        13.0950   67.4210   45.3700 C.3   162  GLY162      0.1869
    137  C         13.0130   66.0060   44.8270 C.2   162  GLY162      0.2309
    138  O         13.0100   65.7950   43.6120 O.2   162  GLY162     -0.2863
    139  N          6.3230   77.2210   35.0510 N.3   183  GLY183     -0.1210
    140  CA         7.2720   78.0510   35.7580 C.3   183  GLY183      0.1956
    141  C          7.5830   77.3690   37.0830 C.2   183  GLY183      0.2612
    142  O          7.0870   76.2780   37.3660 O.2   183  GLY183     -0.2717
    143  N          8.3740   78.0310   37.9110 N.am  184  TRP184     -0.1962
    144  CA         8.8100   77.4800   39.1840 C.3   184  TRP184      0.1771
    145  C          7.8360   77.5480   40.3670 C.2   184  TRP184      0.2620
    146  O          7.0200   78.4570   40.4790 O.2   184  TRP184     -0.2715
    147  CB        10.1050   78.1860   39.5670 C.3   184  TRP184      0.0590
    148  CG        10.7610   77.7510   40.8330 C.ar  184  TRP184      0.0006
    149  CD1       11.7780   76.8490   40.9620 C.ar  184  TRP184      0.0946
    150  CD2       10.4790   78.2340   42.1530 C.ar  184  TRP184      0.0152
    151  NE1       12.1490   76.7380   42.2830 N.ar  184  TRP184     -0.2442
    152  CE2       11.3650   77.5770   43.0370 C.ar  184  TRP184      0.0810
    153  CE3        9.5590   79.1620   42.6750 C.ar  184  TRP184      0.0012
    154  CZ2       11.3600   77.8140   44.4240 C.ar  184  TRP184      0.0191
    155  CZ3        9.5530   79.4020   44.0560 C.ar  184  TRP184      0.0001
    156  CH2       10.4510   78.7260   44.9140 C.ar  184  TRP184      0.0015
    157  N          7.9420   76.5360   41.2250 N.am  185  GLY185     -0.1954
    158  CA         7.1920   76.4650   42.4620 C.3   185  GLY185      0.1869
    159  C          5.7270   76.1330   42.5570 C.2   185  GLY185      0.2309
    160  O          4.9500   76.2970   41.5950 O.2   185  GLY185     -0.2863
    161  N          3.9920   73.3760   42.6170 N.3   187  GLU187     -0.1231
    162  CA         3.4400   72.1130   42.1500 C.3   187  GLU187      0.1699
    163  C          3.5810   71.0260   43.2050 C.2   187  GLU187      0.2592
    164  O          2.7870   70.0800   43.2560 O.2   187  GLU187     -0.2718
    165  CB         4.1210   71.6760   40.8500 C.3   187  GLU187      0.0402
    166  CG         5.3960   70.8980   41.0570 C.3   187  GLU187      0.1161
    167  CD         6.5750   71.7500   41.4550 C.2   187  GLU187      0.3649
    168  OE1        7.5760   71.1490   41.8890 O.co2 187  GLU187     -0.2457
    169  OE2        6.5310   72.9940   41.3310 O.co2 187  GLU187     -0.2457
    170  N          4.5860   71.1490   44.0600 N.am  188  ASP188     -0.1974
    171  CA         4.7810   70.1350   45.0940 C.3   188  ASP188      0.1709
    172  C          3.7340   70.2760   46.2150 C.2   188  ASP188      0.2293
    173  O          3.2820   69.2750   46.7860 O.2   188  ASP188     -0.2864
    174  CB         6.2140   70.2100   45.6630 C.3   188  ASP188      0.1436
    175  CG         6.6340   71.6370   46.0340 C.2   188  ASP188      0.3671
    176  OD1        7.6260   71.7940   46.7890 O.co2 188  ASP188     -0.2456
    177  OD2        5.9750   72.5980   45.5700 O.co2 188  ASP188     -0.2456
    178  N         22.5870   69.2090   47.1050 N.3   214  HIS214     -0.1241
    179  CA        21.9770   69.8710   45.9700 C.3   214  HIS214      0.1621
    180  C         23.0900   70.5820   45.2350 C.2   214  HIS214      0.2264
    181  O         23.8300   71.3500   45.8360 O.2   214  HIS214     -0.2867
    182  CB        20.9560   70.9020   46.4280 C.3   214  HIS214      0.0745
    183  CG        20.3280   71.6650   45.3040 C.ar  214  HIS214      0.0817
    184  ND1       20.7280   72.9340   44.9500 N.ar  214  HIS214     -0.2268
    185  CD2       19.3120   71.3450   44.4680 C.ar  214  HIS214      0.1154
    186  CE1       19.9800   73.3650   43.9480 C.ar  214  HIS214      0.1986
    187  NE2       19.1120   72.4190   43.6380 N.ar  214  HIS214     -0.2212
    188  N         23.1730   75.9280   41.7140 N.3   217  HIS217     -0.1241
    189  CA        23.0160   76.3910   40.3490 C.3   217  HIS217      0.1621
    190  C         22.2900   77.7120   40.3010 C.2   217  HIS217      0.2264
    191  O         21.5920   78.0860   41.2390 O.2   217  HIS217     -0.2867
    192  CB        22.2360   75.3680   39.5130 C.3   217  HIS217      0.0745
    193  CG        20.8630   75.0620   40.0390 C.ar  217  HIS217      0.0817
    194  ND1       19.7700   75.8660   39.7930 N.ar  217  HIS217     -0.2268
    195  CD2       20.4030   74.0190   40.7720 C.ar  217  HIS217      0.1154
    196  CE1       18.6980   75.3300   40.3490 C.ar  217  HIS217      0.1986
    197  NE2       19.0550   74.2090   40.9500 N.ar  217  HIS217     -0.2212
    198  N         19.5460   80.3710   38.3890 N.3   219  ARG219     -0.1231
    199  CA        18.1680   80.1930   37.9470 C.3   219  ARG219      0.1694
    200  C         18.1560   79.9270   36.4410 C.2   219  ARG219      0.2592
    201  O         19.0030   80.4410   35.7020 O.2   219  ARG219     -0.2718
    202  CB        17.3520   81.4550   38.2450 C.3   219  ARG219      0.0321
    203  CG        15.9820   81.4920   37.5660 C.3   219  ARG219      0.0489
    204  CD        14.9860   80.5310   38.2280 C.3   219  ARG219      0.2205
    205  NE        14.5380   81.0260   39.5330 N.pl3 219  ARG219     -0.0865
    206  CZ        13.7480   80.3450   40.3580 C.cat 219  ARG219      0.5346
    207  NH1       13.3230   79.1400   40.0060 N.pl3 219  ARG219      0.1354
    208  NH2       13.3900   80.8580   41.5340 N.pl3 219  ARG219      0.1354
    209  N         17.1990   79.1220   35.9890 N.am  220  ASP220     -0.1960
    210  CA        17.0890   78.8040   34.5700 C.3   220  ASP220      0.1840
    211  C         16.1130   79.7330   33.8880 C.2   220  ASP220      0.2621
    212  O         15.0380   80.0280   34.4190 O.2   220  ASP220     -0.2715
    213  CB        16.5930   77.3730   34.3440 C.3   220  ASP220      0.1450
    214  CG        17.5400   76.3240   34.8860 C.2   220  ASP220      0.3671
    215  OD1       17.2050   75.7120   35.9200 O.co2 220  ASP220     -0.2456
    216  OD2       18.6100   76.1120   34.2760 O.co2 220  ASP220     -0.2456
    217  N         16.4940   80.1940   32.7030 N.am  221  LYS221     -0.1977
    218  CA        15.6230   81.0560   31.9200 C.3   221  LYS221      0.1596
    219  C         14.4020   80.1840   31.6010 C.2   221  LYS221      0.2287
    220  O         14.5340   78.9810   31.3770 O.2   221  LYS221     -0.2864
    221  CB        16.3310   81.4750   30.6290 C.3   221  LYS221      0.0298
    222  CG        16.9350   82.8840   30.6450 C.3   221  LYS221      0.0038
    223  CD        15.9810   83.8890   29.9960 C.3   221  LYS221      0.0206
    224  CE        15.5610   83.4340   28.5830 C.3   221  LYS221      0.1093
    225  NZ        14.4580   84.2540   27.9800 N.3   221  LYS221     -0.1314
    226  N         11.9250   79.3880   33.6710 N.3   223  ASN223     -0.1240
    227  CA        11.3940   78.6470   34.8180 C.3   223  ASN223      0.1653
    228  C         11.3510   79.6250   35.9750 C.2   223  ASN223      0.2266
    229  O         11.7130   79.2950   37.1010 O.2   223  ASN223     -0.2867
    230  CB        12.2200   77.4080   35.2060 C.3   223  ASN223      0.1155
    231  CG        11.4250   76.4460   36.1140 C.2   223  ASN223      0.2627
    232  OD1       10.2240   76.2580   35.9270 O.2   223  ASN223     -0.2716
    233  ND2       12.0930   75.8370   37.0830 N.am  223  ASN223     -0.0877
@<TRIPOS>BOND
     1    29    27    1
     2    26    27    2
     3    26    25    1
     4   225   224    1
     5    27    28    1
     6    24    25    1
     7    24    23    1
     8    37    35   am
     9   224   223    1
    10    35    34    1
    11    35    36    2
    12    17    15   ar
    13    17    18   ar
    14    34    31    1
    15    30    31    1
    16    30    21   am
    17    31    32    1
    18    23    20    1
    19    15    13   ar
    20   223   222    1
    21    18    16   ar
    22    20    21    1
    23    20    19    1
    24    11    10    2
    25    21    22    2
    26   221   222    1
    27   221   218    1
    28    32    38   am
    29    32    33    2
    30    19    10   am
    31    10     9    1
    32    13    12    1
    33    13    14   ar
    34   220   219    2
    35    16    14   ar
    36    49    50    1
    37    38    39    1
    38   219   218    1
    39    12     9    1
    40   218   217    1
    41    50    51    1
    42    50    53    1
    43    55    57   ar
    44    55    54   ar
    45     9     8    1
    46    57    59   ar
    47    40    39    1
    48    40    41    2
    49   217   211   am
    50    39    42    1
    51    51    52    2
    52    53    54    1
    53     8     3   am
    54    54    56   ar
    55    59    58   ar
    56   226   227    1
    57    42    43    1
    58   211   212    2
    59   211   210    1
    60     3     2    1
    61     3     4    2
    62   216   214   ar
    63    43    44    1
    64   213   210    1
    65   213   214    1
    66    56    58   ar
    67   210   209    1
    68     2     1    1
    69     2     5    1
    70   227   230    1
    71   227   228    1
    72   214   215   ar
    73    44    45    1
    74   139   140    1
    75   230   231    1
    76    60    61    1
    77     1     7    1
    78     5     6    1
    79   201   200    2
    80    45    46    2
    81    63    62    2
    82   140   141    1
    83   232   231    2
    84   228   229    2
    85   209   200   am
    86    85    83    1
    87    61    62    1
    88    61    64    1
    89   231   233   am
    90   200   199    1
    91    83    84    1
    92    83    80    1
    93     6     7    1
    94    46    47    1
    95    46    48    1
    96   141   142    2
    97   141   143   am
    98    64    65    1
    99   203   204    1
   100   203   202    1
   101   143   144    1
   102   199   202    1
   103   199   198    1
   104   204   205    1
   105    80    79    1
   106    80    81    1
   107    65    66    1
   108    79    73   am
   109    82    81    2
   110    81    86   am
   111   144   147    1
   112   144   145    1
   113   192   193    1
   114   192   189    1
   115   205   206    2
   116   147   148    1
   117    66    67    1
   118   194   193   ar
   119   194   196   ar
   120    73    72    1
   121    73    74    2
   122   207   206    1
   123   193   195   ar
   124    86    87    1
   125   190   189    1
   126   190   191    2
   127    72    71    1
   128    72    75    1
   129   189   188    1
   130   196   197   ar
   131   206   208    1
   132   145   146    2
   133   145   157   am
   134    67    68    2
   135    92    91   ar
   136    90    87    1
   137    90    91    1
   138   195   197   ar
   139   148   149   ar
   140   148   150   ar
   141   165   166    1
   142   165   162    1
   143    87    88    1
   144   149   151   ar
   145   166   167    1
   146    91    93   ar
   147    77    76   ar
   148   157   158    1
   149    75    76    1
   150   169   167   ar
   151    68    69    1
   152    68    70    1
   153   167   168   ar
   154   160   159    2
   155    76    78   ar
   156   162   161    1
   157   162   163    1
   158   150   153   ar
   159   150   152   ar
   160   151   152   ar
   161    88    94   am
   162    88    89    2
   163   158   159    1
   164   153   155   ar
   165    94    95    1
   166   152   154   ar
   167   163   164    2
   168   163   170   am
   169    97    96    2
   170   138   137    2
   171   187   186   ar
   172   187   185   ar
   173   186   184   ar
   174   155   156   ar
   175   170   171    1
   176    95    96    1
   177    95    98    1
   178   154   156   ar
   179   185   183   ar
   180    98    99    1
   181   137   136    1
   182   101    99    1
   183   184   183   ar
   184   171   174    1
   185   171   172    1
   186   180   181    2
   187   180   179    1
   188   183   182    1
   189   136   135    1
   190    99   100    1
   191   135   133   am
   192   177   175   ar
   193   174   175    1
   194   179   182    1
   195   179   178    1
   196   175   176   ar
   197   172   173    2
   198   118   117    1
   199   133   132    1
   200   133   134    2
   201   132   131    1
   202   117   116    1
   203   130   129    1
   204   116   115    1
   205   109   108    1
   206   129   127   ar
   207   129   128   ar
   208   127   125   ar
   209   108   107    1
   210   115   114    1
   211   128   126   ar
   212   114   111    1
   213   107   106    1
   214   125   124   ar
   215   126   124   ar
   216   106   103    1
   217   124   123    1
   218   121   122    2
   219   121   120    1
   220   111   110    1
   221   111   112    1
   222   120   123    1
   223   120   119    1
   224   103   104    1
   225   103   102    1
   226   113   112    2
   227   104   105    2
