@<TRIPOS>MOLECULE
tmp/1tw2B01.pdb
 248 239 0 0 0
SMALL
GASTEIGER

@<TRIPOS>ATOM
      1  N         49.8090   47.1270   19.9360 N.3   100  GLN100     -0.1245
      2  CA        48.4900   47.6880   19.5940 C.3   100  GLN100      0.1566
      3  C         48.4660   48.8170   18.5580 C.2   100  GLN100      0.2260
      4  O         47.4170   49.1060   17.9920 O.2   100  GLN100     -0.2867
      5  CB        47.7930   48.1950   20.8530 C.3   100  GLN100      0.0367
      6  CG        47.3170   47.1050   21.7850 C.3   100  GLN100      0.0905
      7  CD        46.6070   45.9790   21.0620 C.2   100  GLN100      0.2608
      8  OE1       47.0540   44.8480   21.1090 O.2   100  GLN100     -0.2717
      9  NE2       45.5120   46.2930   20.3820 N.am  100  GLN100     -0.0878
     10  N         48.3410   46.6450   15.4110 N.3   103  TRP103     -0.1241
     11  CA        47.0350   45.9910   15.3070 C.3   103  TRP103      0.1605
     12  C         45.9120   46.9580   14.9240 C.2   103  TRP103      0.2264
     13  O         44.9030   46.5300   14.3920 O.2   103  TRP103     -0.2867
     14  CB        46.6610   45.3040   16.6250 C.3   103  TRP103      0.0550
     15  CG        47.3820   44.0230   16.8540 C.ar  103  TRP103      0.0003
     16  CD1       48.4940   43.8460   17.6140 C.ar  103  TRP103      0.0946
     17  CD2       47.0480   42.7370   16.3280 C.ar  103  TRP103      0.0152
     18  NE1       48.8920   42.5310   17.5770 N.ar  103  TRP103     -0.2442
     19  CE2       48.0140   41.8230   16.8060 C.ar  103  TRP103      0.0810
     20  CE3       46.0320   42.2600   15.4940 C.ar  103  TRP103      0.0012
     21  CZ2       47.9880   40.4640   16.4960 C.ar  103  TRP103      0.0191
     22  CZ3       46.0100   40.9140   15.1730 C.ar  103  TRP103      0.0001
     23  CH2       46.9850   40.0270   15.6740 C.ar  103  TRP103      0.0015
     24  N         45.3830   43.6940    9.4620 N.3   110  VAL110     -0.1245
     25  CA        44.2530   43.3220   10.3220 C.3   110  VAL110      0.1561
     26  C         43.2450   44.4450   10.5140 C.2   110  VAL110      0.2260
     27  O         42.0520   44.2090   10.4220 O.2   110  VAL110     -0.2867
     28  CB        44.7240   42.7550   11.7000 C.3   110  VAL110      0.0252
     29  CG1       43.5130   42.4760   12.6250 C.3   110  VAL110      0.0019
     30  CG2       45.5270   41.4770   11.5030 C.3   110  VAL110      0.0019
     31  N         40.4180   36.9980    1.3150 N.3   139  PHE139     -0.1227
     32  CA        41.4910   37.4250    2.2450 C.3   139  PHE139      0.1736
     33  C         42.9200   37.1180    1.7920 C.2   139  PHE139      0.2595
     34  O         43.7130   38.0330    1.6280 O.2   139  PHE139     -0.2718
     35  CB        41.2680   36.8440    3.6540 C.3   139  PHE139      0.0547
     36  CG        42.2060   37.3980    4.7000 C.ar  139  PHE139     -0.0202
     37  CD1       42.0230   38.6700    5.2150 C.ar  139  PHE139     -0.0042
     38  CD2       43.2750   36.6490    5.1660 C.ar  139  PHE139     -0.0042
     39  CE1       42.8850   39.1820    6.1750 C.ar  139  PHE139     -0.0003
     40  CE2       44.1290   37.1620    6.1210 C.ar  139  PHE139     -0.0003
     41  CZ        43.9300   38.4270    6.6290 C.ar  139  PHE139     -0.0000
     42  N         43.2490   35.8470    1.6090 N.am  140  TYR140     -0.1976
     43  CA        44.6350   35.4350    1.2790 C.3   140  TYR140      0.1639
     44  C         45.0630   35.6540   -0.1740 C.2   140  TYR140      0.2290
     45  O         46.2520   35.6820   -0.4500 O.2   140  TYR140     -0.2864
     46  CB        44.8640   33.9680    1.6310 C.3   140  TYR140      0.0560
     47  CG        44.9190   33.7050    3.1070 C.ar  140  TYR140     -0.0198
     48  CD1       43.9690   32.8940    3.7270 C.ar  140  TYR140     -0.0009
     49  CD2       45.9270   34.2690    3.8900 C.ar  140  TYR140     -0.0009
     50  CE1       44.0140   32.6570    5.0750 C.ar  140  TYR140      0.0417
     51  CE2       45.9850   34.0300    5.2500 C.ar  140  TYR140      0.0417
     52  CZ        45.0330   33.2160    5.8350 C.ar  140  TYR140      0.1957
     53  OH        45.0870   32.9900    7.1880 O.3   140  TYR140     -0.2866
     54  N         50.6960   41.1500    8.0730 N.3   153  PHE153     -0.1241
     55  CA        49.9150   40.0920    8.6800 C.3   153  PHE153      0.1605
     56  C         50.8170   39.0820    9.3530 C.2   153  PHE153      0.2264
     57  O         50.6160   38.7280   10.5140 O.2   153  PHE153     -0.2867
     58  CB        49.0770   39.3710    7.6260 C.3   153  PHE153      0.0534
     59  CG        48.2650   38.2370    8.1790 C.ar  153  PHE153     -0.0203
     60  CD1       47.1580   38.5010    8.9640 C.ar  153  PHE153     -0.0042
     61  CD2       48.6240   36.9200    7.9360 C.ar  153  PHE153     -0.0042
     62  CE1       46.4190   37.4830    9.4870 C.ar  153  PHE153     -0.0003
     63  CE2       47.8740   35.8930    8.4410 C.ar  153  PHE153     -0.0003
     64  CZ        46.7710   36.1700    9.2300 C.ar  153  PHE153     -0.0000
     65  N         51.0540   38.2830   13.5170 N.3   157  LEU157     -0.1245
     66  CA        50.8120   36.9650   14.0960 C.3   157  LEU157      0.1561
     67  C         52.0370   36.4300   14.8150 C.2   157  LEU157      0.2260
     68  O         51.8980   35.8260   15.8620 O.2   157  LEU157     -0.2867
     69  CB        50.3720   35.9660   13.0300 C.3   157  LEU157      0.0270
     70  CG        49.0110   36.1890   12.3600 C.3   157  LEU157      0.0019
     71  CD1       48.3670   34.8420   12.0840 C.3   157  LEU157      0.0001
     72  CD2       48.0470   37.0530   13.1380 C.3   157  LEU157      0.0001
     73  N         54.3360   38.1540   16.2800 N.3   159  CYS159     -0.1221
     74  CA        54.5010   38.9450   17.5140 C.3   159  CYS159      0.1808
     75  C         55.5240   38.4420   18.5380 C.2   159  CYS159      0.2601
     76  O         56.6230   38.9810   18.6200 O.2   159  CYS159     -0.2717
     77  CB        53.1310   39.0340   18.2160 C.3   159  CYS159      0.0970
     78  SG        52.4110   40.6800   18.3000 S.3   159  CYS159     -0.0800
     79  N         55.1360   37.4280   19.3210 N.am  160  ASP160     -0.1973
     80  CA        55.9700   36.8970   20.3950 C.3   160  ASP160      0.1709
     81  C         56.4600   35.5210   20.0190 C.2   160  ASP160      0.2293
     82  O         56.6850   34.7150   20.9020 O.2   160  ASP160     -0.2864
     83  CB        55.2100   36.7200   21.7360 C.3   160  ASP160      0.1436
     84  CG        54.1040   37.7220   21.9500 C.2   160  ASP160      0.3671
     85  OD1       54.1430   38.8060   21.3250 O.co2 160  ASP160     -0.2456
     86  OD2       53.1520   37.5040   22.7450 O.co2 160  ASP160     -0.2456
     87  N         55.8530   32.3180   22.3540 N.3   164  ALA164     -0.1231
     88  CA        54.4270   31.9400   22.4230 C.3   164  ALA164      0.1694
     89  C         54.1630   30.4750   22.1010 C.2   164  ALA164      0.2592
     90  O         53.0850   29.9630   22.3960 O.2   164  ALA164     -0.2718
     91  CB        53.5920   32.8280   21.4930 C.3   164  ALA164      0.0304
     92  N         55.1490   29.8220   21.4880 N.am  165  PHE165     -0.1976
     93  CA        55.0310   28.4450   21.0440 C.3   165  PHE165      0.1639
     94  C         55.7270   27.4870   21.9980 C.2   165  PHE165      0.2290
     95  O         55.7130   26.2840   21.7910 O.2   165  PHE165     -0.2864
     96  CB        55.6280   28.3030   19.6340 C.3   165  PHE165      0.0560
     97  CG        54.8110   28.9710   18.5580 C.ar  165  PHE165     -0.0200
     98  CD1       55.3140   30.0520   17.8500 C.ar  165  PHE165     -0.0042
     99  CD2       53.5430   28.5060   18.2430 C.ar  165  PHE165     -0.0042
    100  CE1       54.5710   30.6650   16.8450 C.ar  165  PHE165     -0.0003
    101  CE2       52.7910   29.1090   17.2390 C.ar  165  PHE165     -0.0003
    102  CZ        53.3080   30.2010   16.5440 C.ar  165  PHE165     -0.0000
    103  N         48.3200   24.9750   13.5000 N.3   249  SER249     -0.1202
    104  CA        48.3010   25.9730   14.5470 C.3   249  SER249      0.2020
    105  C         47.5970   27.2240   14.0420 C.2   249  SER249      0.2618
    106  O         48.1370   27.9480   13.2110 O.2   249  SER249     -0.2717
    107  CB        49.7330   26.3040   14.9490 C.3   249  SER249      0.2103
    108  OG        49.7640   27.3590   15.8890 O.3   249  SER249     -0.2182
    109  N         46.3900   27.4530   14.5500 N.am  250  PHE250     -0.1975
    110  CA        45.5840   28.6200   14.2070 C.3   250  PHE250      0.1639
    111  C         45.4140   28.7440   12.7030 C.2   250  PHE250      0.2290
    112  O         45.6210   29.8100   12.1240 O.2   250  PHE250     -0.2864
    113  CB        46.1520   29.8940   14.8390 C.3   250  PHE250      0.0560
    114  CG        45.7800   30.0440   16.2700 C.ar  250  PHE250     -0.0200
    115  CD1       46.5400   29.4390   17.2660 C.ar  250  PHE250     -0.0042
    116  CD2       44.6400   30.7470   16.6280 C.ar  250  PHE250     -0.0042
    117  CE1       46.1850   29.5470   18.5890 C.ar  250  PHE250     -0.0003
    118  CE2       44.2890   30.8690   17.9730 C.ar  250  PHE250     -0.0003
    119  CZ        45.0630   30.2600   18.9460 C.ar  250  PHE250     -0.0000
    120  N         40.4600   27.5160   12.1840 N.3   253  LEU253     -0.1231
    121  CA        39.5330   28.6380   12.4340 C.3   253  LEU253      0.1693
    122  C         39.3410   29.5770   11.2280 C.2   253  LEU253      0.2592
    123  O         38.2760   30.1440   11.0730 O.2   253  LEU253     -0.2718
    124  CB        39.9570   29.4500   13.6540 C.3   253  LEU253      0.0284
    125  CG        41.1040   30.4610   13.4920 C.3   253  LEU253      0.0019
    126  CD1       41.1450   31.3560   14.7150 C.3   253  LEU253      0.0001
    127  CD2       42.4380   29.7840   13.2900 C.3   253  LEU253      0.0001
    128  N         40.3520   29.7110   10.3630 N.am  254  ASN254     -0.1974
    129  CA        40.1910   30.4380    9.0860 C.3   254  ASN254      0.1688
    130  C         39.2180   29.8190    8.0660 C.2   254  ASN254      0.2292
    131  O         38.9470   30.4390    7.0640 O.2   254  ASN254     -0.2864
    132  CB        41.5110   30.5550    8.3160 C.3   254  ASN254      0.1181
    133  CG        42.6330   31.1900    9.0880 C.2   254  ASN254      0.2629
    134  OD1       43.7310   31.2660    8.5470 O.2   254  ASN254     -0.2716
    135  ND2       42.3990   31.6310   10.3320 N.am  254  ASN254     -0.0877
    136  N         46.6700   23.1280   17.2820 N.3   280  HIS280     -0.1241
    137  CA        46.8610   24.1320   18.3180 C.3   280  HIS280      0.1621
    138  C         45.8150   25.2060   18.0950 C.2   280  HIS280      0.2264
    139  O         45.8580   25.9240   17.1000 O.2   280  HIS280     -0.2867
    140  CB        48.2670   24.7160   18.2130 C.3   280  HIS280      0.0745
    141  CG        48.5470   25.8520   19.1500 C.ar  280  HIS280      0.0817
    142  ND1       48.6360   25.6940   20.5130 N.ar  280  HIS280     -0.2268
    143  CD2       48.8020   27.1570   18.9110 C.ar  280  HIS280      0.1154
    144  CE1       48.9170   26.8550   21.0740 C.ar  280  HIS280      0.1986
    145  NE2       49.0200   27.7610   20.1250 N.ar  280  HIS280     -0.2212
    146  N         41.8020   26.8230   20.0860 N.3   282  ARG282     -0.1245
    147  CA        40.9380   26.9390   21.2460 C.3   282  ARG282      0.1563
    148  C         39.8450   25.9140   21.1440 C.2   282  ARG282      0.2260
    149  O         39.5040   25.4570   20.0520 O.2   282  ARG282     -0.2867
    150  CB        40.2610   28.3020   21.3760 C.3   282  ARG282      0.0307
    151  CG        40.6800   29.3670   20.4130 C.3   282  ARG282      0.0489
    152  CD        40.6880   30.7690   21.0160 C.3   282  ARG282      0.2205
    153  NE        39.6440   31.0080   22.0170 N.pl3 282  ARG282     -0.0865
    154  CZ        39.4460   32.1980   22.5750 C.cat 282  ARG282      0.5346
    155  NH1       40.1970   33.2350   22.2210 N.pl3 282  ARG282      0.1354
    156  NH2       38.4940   32.3710   23.4720 N.pl3 282  ARG282      0.1354
    157  N         36.6050   38.3660   24.5150 N.3   293  GLN293     -0.1245
    158  CA        37.8650   37.7250   24.2190 C.3   293  GLN293      0.1566
    159  C         37.6580   36.4310   23.4170 C.2   293  GLN293      0.2260
    160  O         38.6250   35.8290   22.9630 O.2   293  GLN293     -0.2867
    161  CB        38.6490   37.5200   25.5240 C.3   293  GLN293      0.0367
    162  CG        39.0510   38.8730   26.2220 C.3   293  GLN293      0.0905
    163  CD        38.0010   39.3940   27.2470 C.2   293  GLN293      0.2608
    164  OE1       37.1550   38.6230   27.7330 O.2   293  GLN293     -0.2717
    165  NE2       38.0630   40.7000   27.5700 N.am  293  GLN293     -0.0878
    166  N         35.6710   38.3820   19.5310 N.3   296  GLU296     -0.1231
    167  CA        36.5060   39.2380   18.6980 C.3   296  GLU296      0.1699
    168  C         37.2220   38.4140   17.6170 C.2   296  GLU296      0.2592
    169  O         37.1650   38.7390   16.4350 O.2   296  GLU296     -0.2718
    170  CB        37.5160   40.0410   19.5270 C.3   296  GLU296      0.0402
    171  CG        36.9910   41.4070   19.9560 C.3   296  GLU296      0.1161
    172  CD        38.0020   42.2220   20.7640 C.2   296  GLU296      0.3649
    173  OE1       38.5230   43.2350   20.2080 O.co2 296  GLU296     -0.2457
    174  OE2       38.2560   41.8570   21.9550 O.co2 296  GLU296     -0.2457
    175  N         37.8810   37.3460   18.0360 N.am  297  LEU297     -0.1980
    176  CA        38.4960   36.4160   17.1010 C.3   297  LEU297      0.1596
    177  C         37.4250   35.6960   16.2750 C.2   297  LEU297      0.2287
    178  O         37.5920   35.5110   15.0730 O.2   297  LEU297     -0.2864
    179  CB        39.3750   35.3950   17.8320 C.3   297  LEU297      0.0297
    180  CG        40.1170   34.3950   16.9470 C.3   297  LEU297      0.0022
    181  CD1       40.8140   35.0800   15.7290 C.3   297  LEU297      0.0001
    182  CD2       41.1350   33.6100   17.7630 C.3   297  LEU297      0.0001
    183  N         35.7690   38.2350   13.6590 N.3   300  ARG300     -0.1231
    184  CA        36.8280   38.4930   12.6740 C.3   300  ARG300      0.1694
    185  C         36.9080   37.3140   11.7080 C.2   300  ARG300      0.2591
    186  O         37.0070   37.4960   10.4970 O.2   300  ARG300     -0.2718
    187  CB        38.2280   38.7270   13.3010 C.3   300  ARG300      0.0321
    188  CG        38.4060   40.0510   14.0440 C.3   300  ARG300      0.0489
    189  CD        39.7170   40.8270   13.7930 C.3   300  ARG300      0.2205
    190  NE        40.5270   41.0240   15.0060 N.pl3 300  ARG300     -0.0865
    191  CZ        40.7930   42.1910   15.6310 C.cat 300  ARG300      0.5346
    192  NH1       40.3300   43.3570   15.1950 N.pl3 300  ARG300      0.1354
    193  NH2       41.5640   42.1760   16.7180 N.pl3 300  ARG300      0.1354
    194  N         36.8330   36.1040   12.2370 N.am  301  MET301     -0.1979
    195  CA        36.9180   34.9160   11.3950 C.3   301  MET301      0.1605
    196  C         35.7010   34.8150   10.4630 C.2   301  MET301      0.2287
    197  O         35.8690   34.5520    9.2790 O.2   301  MET301     -0.2864
    198  CB        37.1360   33.6520   12.2360 C.3   301  MET301      0.0413
    199  CG        38.4380   32.9110   11.9290 C.3   301  MET301      0.0598
    200  SD        39.9090   33.8810   11.9540 S.3   301  MET301     -0.1393
    201  CE        40.1640   34.1600   10.2410 C.3   301  MET301      0.0692
    202  N         36.1550   38.1170    7.9010 N.3   304  PHE304     -0.1227
    203  CA        37.3670   38.1500    7.0660 C.3   304  PHE304      0.1736
    204  C         37.3640   36.9950    6.0680 C.2   304  PHE304      0.2595
    205  O         37.7250   37.1870    4.9040 O.2   304  PHE304     -0.2718
    206  CB        38.6510   38.0120    7.8800 C.3   304  PHE304      0.0547
    207  CG        38.9760   39.1790    8.7950 C.ar  304  PHE304     -0.0202
    208  CD1       40.1860   39.1780    9.4910 C.ar  304  PHE304     -0.0042
    209  CD2       38.1060   40.2400    8.9960 C.ar  304  PHE304     -0.0042
    210  CE1       40.5240   40.2060   10.3420 C.ar  304  PHE304     -0.0003
    211  CE2       38.4500   41.2830    9.8700 C.ar  304  PHE304     -0.0003
    212  CZ        39.6600   41.2600   10.5280 C.ar  304  PHE304     -0.0000
    213  N         36.9270   35.8150    6.5350 N.am  305  LEU305     -0.1980
    214  CA        37.2590   34.5090    5.9240 C.3   305  LEU305      0.1596
    215  C         36.1470   33.4680    5.8620 C.2   305  LEU305      0.2287
    216  O         36.2960   32.4600    5.1930 O.2   305  LEU305     -0.2864
    217  CB        38.4150   33.8850    6.7200 C.3   305  LEU305      0.0297
    218  CG        39.7970   34.3740    6.3020 C.3   305  LEU305      0.0022
    219  CD1       40.7120   34.5380    7.4730 C.3   305  LEU305      0.0001
    220  CD2       40.3840   33.4040    5.3160 C.3   305  LEU305      0.0001
    221  N         45.6460   35.3000   29.8930 N.3   337  ILE337     -0.1245
    222  CA        44.3630   35.2020   29.1880 C.3   337  ILE337      0.1561
    223  C         43.3430   34.3940   29.9940 C.2   337  ILE337      0.2260
    224  O         43.6800   33.3640   30.5750 O.2   337  ILE337     -0.2867
    225  CB        44.5460   34.6050   27.7480 C.3   337  ILE337      0.0252
    226  CG1       45.8290   33.7450   27.6370 C.3   337  ILE337      0.0019
    227  CG2       44.5660   35.7430   26.7050 C.3   337  ILE337      0.0019
    228  CD1       45.9180   32.8650   26.3850 C.3   337  ILE337      0.0001
    229  N         41.0590   32.5070   29.0340 N.3   339  TYR339     -0.1241
    230  CA        40.6870   31.2710   28.3410 C.3   339  TYR339      0.1605
    231  C         41.9430   30.4190   28.1340 C.2   339  TYR339      0.2264
    232  O         43.0690   30.8920   28.3130 O.2   339  TYR339     -0.2867
    233  CB        39.9940   31.5800   26.9870 C.3   339  TYR339      0.0534
    234  CG        40.8630   32.3790   26.0130 C.ar  339  TYR339     -0.0201
    235  CD1       41.7720   31.7360   25.1730 C.ar  339  TYR339     -0.0009
    236  CD2       40.7990   33.7780   25.9680 C.ar  339  TYR339     -0.0009
    237  CE1       42.5850   32.4530   24.3170 C.ar  339  TYR339      0.0417
    238  CE2       41.5950   34.5040   25.1030 C.ar  339  TYR339      0.0417
    239  CZ        42.4910   33.8390   24.2780 C.ar  339  TYR339      0.1957
    240  OH        43.2960   34.5390   23.4070 O.3   339  TYR339     -0.2866
    241  N         44.2660   27.9500   25.6960 N.3   341  LEU341     -0.1245
    242  CA        44.5890   27.3950   24.3950 C.3   341  LEU341      0.1561
    243  C         44.6300   25.8810   24.5690 C.2   341  LEU341      0.2260
    244  O         44.7950   25.3790   25.6730 O.2   341  LEU341     -0.2867
    245  CB        45.9120   27.9350   23.8800 C.3   341  LEU341      0.0270
    246  CG        45.8960   29.4490   23.6850 C.3   341  LEU341      0.0019
    247  CD1       47.3090   29.9940   23.4870 C.3   341  LEU341      0.0001
    248  CD2       44.9950   29.8030   22.5160 C.3   341  LEU341      0.0001
@<TRIPOS>BOND
     1    45    44    2
     2    44    43    1
     3    43    42    1
     4    43    46    1
     5    31    32    1
     6    42    33   am
     7    34    33    2
     8    46    47    1
     9    33    32    1
    10    32    35    1
    11    47    48   ar
    12    47    49   ar
    13    35    36    1
    14    48    50   ar
    15    49    51   ar
    16    36    38   ar
    17    36    37   ar
    18   205   204    2
    19    50    52   ar
    20    38    40   ar
    21   216   215    2
    22    37    39   ar
    23    51    52   ar
    24   220   218    1
    25    52    53    1
    26   215   214    1
    27   214   213    1
    28   214   217    1
    29   204   213   am
    30   204   203    1
    31    40    41   ar
    32    39    41   ar
    33   218   217    1
    34   218   219    1
    35   131   130    2
    36   203   206    1
    37   203   202    1
    38    58    59    1
    39    58    55    1
    40   206   207    1
    41    61    59   ar
    42    61    63   ar
    43   130   129    1
    44    54    55    1
    45    59    60   ar
    46   132   129    1
    47   132   133    1
    48    63    64   ar
    49   134   133    2
    50    55    56    1
    51   207   209   ar
    52   207   208   ar
    53    60    62   ar
    54   209   211   ar
    55   129   128    1
    56   133   135   am
    57    64    62   ar
    58   197   196    2
    59    56    57    2
    60    24    25    1
    61   208   210   ar
    62   211   212   ar
    63   201   200    1
    64    25    26    1
    65    25    28    1
    66   210   212   ar
    67   128   122   am
    68    27    26    2
    69   196   195    1
    70   186   185    2
    71   123   122    2
    72   122   121    1
    73   195   198    1
    74   195   194    1
    75    30    28    1
    76    28    29    1
    77   185   194   am
    78   185   184    1
    79   199   200    1
    80   199   198    1
    81    71    70    1
    82   112   111    2
    83   120   121    1
    84    70    69    1
    85    70    72    1
    86   121   124    1
    87   184   187    1
    88   184   183    1
    89   111   110    1
    90    69    66    1
    91   106   105    2
    92   127   125    1
    93   187   188    1
    94   125   124    1
    95   125   126    1
    96   103   104    1
    97    65    66    1
    98   189   188    1
    99   189   190    1
   100   105   104    1
   101   105   109   am
   102    66    67    1
   103   110   109    1
   104   110   113    1
   105    13    12    2
   106   104   107    1
   107    67    68    2
   108   113   114    1
   109    12    11    1
   110   107   108    1
   111   190   191    2
   112   178   177    2
   113    22    20   ar
   114    22    23   ar
   115   192   191    1
   116    11    10    1
   117    11    14    1
   118    20    17   ar
   119   191   193    1
   120    23    21   ar
   121   181   180    1
   122   114   116   ar
   123   114   115   ar
   124   177   176    1
   125    73    74    1
   126    17    19   ar
   127    17    15   ar
   128   169   168    2
   129    21    19   ar
   130   102   100   ar
   131   102   101   ar
   132    14    15    1
   133   116   118   ar
   134    19    18   ar
   135   100    98   ar
   136    15    16   ar
   137   180   182    1
   138   180   179    1
   139   139   138    2
   140   176   179    1
   141   176   175    1
   142   101    99   ar
   143   115   117   ar
   144   136   137    1
   145    74    77    1
   146    74    75    1
   147    18    16   ar
   148   168   175   am
   149   168   167    1
   150    98    97   ar
   151   118   119   ar
   152     4     3    2
   153   138   137    1
   154   140   137    1
   155   140   141    1
   156    77    78    1
   157    99    97   ar
   158    75    76    2
   159    75    79   am
   160     3     2    1
   161    97    96    1
   162   117   119   ar
   163   167   170    1
   164   167   166    1
   165   143   141   ar
   166   143   145   ar
   167   141   142   ar
   168    79    80    1
   169   170   171    1
   170     2     1    1
   171     2     5    1
   172    96    93    1
   173   171   172    1
   174    81    80    1
   175    81    82    2
   176   149   148    2
   177   146   147    1
   178   145   144   ar
   179   173   172   ar
   180     9     7   am
   181    80    83    1
   182   151   152    1
   183   151   150    1
   184   142   144   ar
   185   172   174   ar
   186     5     6    1
   187   152   153    1
   188    93    92    1
   189    93    94    1
   190     7     8    2
   191     7     6    1
   192   148   147    1
   193   147   150    1
   194    85    84   ar
   195    92    89   am
   196    91    88    1
   197    83    84    1
   198    95    94    2
   199    84    86   ar
   200   153   154    2
   201    89    90    2
   202    89    88    1
   203   155   154    1
   204    87    88    1
   205   248   246    1
   206   154   156    1
   207   160   159    2
   208   240   239    1
   209   159   158    1
   210   247   246    1
   211   246   245    1
   212   245   242    1
   213   158   157    1
   214   158   161    1
   215   239   237   ar
   216   239   238   ar
   217   237   235   ar
   218   242   243    1
   219   242   241    1
   220   243   244    2
   221   238   236   ar
   222   235   234   ar
   223   161   162    1
   224   236   234   ar
   225   234   233    1
   226   162   163    1
   227   228   226    1
   228   227   225    1
   229   233   230    1
   230   163   165   am
   231   163   164    2
   232   226   225    1
   233   225   222    1
   234   231   232    2
   235   231   230    1
   236   230   229    1
   237   222   221    1
   238   222   223    1
   239   223   224    2
