@<TRIPOS>MOLECULE
tmp/1tw2B00.pdb
 202 199 0 0 0
SMALL
GASTEIGER

@<TRIPOS>ATOM
      1  N         43.2490   35.8470    1.6090 N.3   140  TYR140     -0.1241
      2  CA        44.6350   35.4350    1.2790 C.3   140  TYR140      0.1605
      3  C         45.0630   35.6540   -0.1740 C.2   140  TYR140      0.2264
      4  O         46.2520   35.6820   -0.4500 O.2   140  TYR140     -0.2867
      5  CB        44.8640   33.9680    1.6310 C.3   140  TYR140      0.0534
      6  CG        44.9190   33.7050    3.1070 C.ar  140  TYR140     -0.0201
      7  CD1       43.9690   32.8940    3.7270 C.ar  140  TYR140     -0.0009
      8  CD2       45.9270   34.2690    3.8900 C.ar  140  TYR140     -0.0009
      9  CE1       44.0140   32.6570    5.0750 C.ar  140  TYR140      0.0417
     10  CE2       45.9850   34.0300    5.2500 C.ar  140  TYR140      0.0417
     11  CZ        45.0330   33.2160    5.8350 C.ar  140  TYR140      0.1957
     12  OH        45.0870   32.9900    7.1880 O.3   140  TYR140     -0.2866
     13  N         50.7770   41.2310    3.1480 N.3   150  ARG150     -0.1245
     14  CA        51.3150   39.8880    3.4420 C.3   150  ARG150      0.1563
     15  C         52.2920   39.9390    4.6210 C.2   150  ARG150      0.2260
     16  O         52.1160   39.2370    5.6060 O.2   150  ARG150     -0.2867
     17  CB        52.0120   39.3110    2.1960 C.3   150  ARG150      0.0307
     18  CG        52.6690   37.9380    2.3500 C.3   150  ARG150      0.0489
     19  CD        51.6970   36.7810    2.3870 C.3   150  ARG150      0.2205
     20  NE        51.4230   36.3300    3.7540 N.pl3 150  ARG150     -0.0865
     21  CZ        50.5330   35.3960    4.0670 C.cat 150  ARG150      0.5346
     22  NH1       49.8160   34.8110    3.1170 N.pl3 150  ARG150      0.1354
     23  NH2       50.3560   35.0310    5.3370 N.pl3 150  ARG150      0.1354
     24  N         50.6960   41.1500    8.0730 N.3   153  PHE153     -0.1227
     25  CA        49.9150   40.0920    8.6800 C.3   153  PHE153      0.1736
     26  C         50.8170   39.0820    9.3530 C.2   153  PHE153      0.2595
     27  O         50.6160   38.7280   10.5140 O.2   153  PHE153     -0.2718
     28  CB        49.0770   39.3710    7.6260 C.3   153  PHE153      0.0547
     29  CG        48.2650   38.2370    8.1790 C.ar  153  PHE153     -0.0202
     30  CD1       47.1580   38.5010    8.9640 C.ar  153  PHE153     -0.0042
     31  CD2       48.6240   36.9200    7.9360 C.ar  153  PHE153     -0.0042
     32  CE1       46.4190   37.4830    9.4870 C.ar  153  PHE153     -0.0003
     33  CE2       47.8740   35.8930    8.4410 C.ar  153  PHE153     -0.0003
     34  CZ        46.7710   36.1700    9.2300 C.ar  153  PHE153     -0.0000
     35  N         51.8070   38.6040    8.6070 N.am  154  ASP154     -0.1974
     36  CA        52.7880   37.6700    9.1410 C.3   154  ASP154      0.1709
     37  C         53.4610   38.2200   10.3880 C.2   154  ASP154      0.2293
     38  O         53.6500   37.4760   11.3350 O.2   154  ASP154     -0.2864
     39  CB        53.8510   37.3110    8.0970 C.3   154  ASP154      0.1436
     40  CG        53.2600   36.6570    6.8490 C.2   154  ASP154      0.3671
     41  OD1       52.2030   36.0200    6.9390 O.co2 154  ASP154     -0.2456
     42  OD2       53.7640   36.7510    5.7160 O.co2 154  ASP154     -0.2456
     43  N         51.0540   38.2830   13.5170 N.3   157  LEU157     -0.1231
     44  CA        50.8120   36.9650   14.0960 C.3   157  LEU157      0.1693
     45  C         52.0370   36.4300   14.8150 C.2   157  LEU157      0.2591
     46  O         51.8980   35.8260   15.8620 O.2   157  LEU157     -0.2718
     47  CB        50.3720   35.9660   13.0300 C.3   157  LEU157      0.0284
     48  CG        49.0110   36.1890   12.3600 C.3   157  LEU157      0.0019
     49  CD1       48.3670   34.8420   12.0840 C.3   157  LEU157      0.0001
     50  CD2       48.0470   37.0530   13.1380 C.3   157  LEU157      0.0001
     51  N         53.2230   36.6690   14.2550 N.am  158  ALA158     -0.1980
     52  CA        54.4830   36.1830   14.8320 C.3   158  ALA158      0.1597
     53  C         55.0680   37.0980   15.9350 C.2   158  ALA158      0.2287
     54  O         56.1670   36.8640   16.4130 O.2   158  ALA158     -0.2864
     55  CB        55.5020   35.9650   13.7310 C.3   158  ALA158      0.0319
     56  N         55.1490   29.8220   21.4880 N.3   165  PHE165     -0.1241
     57  CA        55.0310   28.4450   21.0440 C.3   165  PHE165      0.1605
     58  C         55.7270   27.4870   21.9980 C.2   165  PHE165      0.2264
     59  O         55.7130   26.2840   21.7910 O.2   165  PHE165     -0.2867
     60  CB        55.6280   28.3030   19.6340 C.3   165  PHE165      0.0534
     61  CG        54.8110   28.9710   18.5580 C.ar  165  PHE165     -0.0203
     62  CD1       55.3140   30.0520   17.8500 C.ar  165  PHE165     -0.0042
     63  CD2       53.5430   28.5060   18.2430 C.ar  165  PHE165     -0.0042
     64  CE1       54.5710   30.6650   16.8450 C.ar  165  PHE165     -0.0003
     65  CE2       52.7910   29.1090   17.2390 C.ar  165  PHE165     -0.0003
     66  CZ        53.3080   30.2010   16.5440 C.ar  165  PHE165     -0.0000
     67  N         54.7330   21.3430    9.7960 N.3   182  ASP182     -0.1239
     68  CA        53.8220   22.3810   10.3110 C.3   182  ASP182      0.1674
     69  C         53.0490   23.0170    9.1510 C.2   182  ASP182      0.2266
     70  O         53.5910   23.7840    8.3580 O.2   182  ASP182     -0.2867
     71  CB        54.6000   23.4280   11.1310 C.3   182  ASP182      0.1410
     72  CG        53.7040   24.4210   11.8330 C.2   182  ASP182      0.3668
     73  OD1       52.4710   24.4010   11.6190 O.co2 182  ASP182     -0.2456
     74  OD2       54.1600   25.2800   12.6180 O.co2 182  ASP182     -0.2456
     75  N         50.8620   25.4280    7.3070 N.3   184  GLY184     -0.1210
     76  CA        50.5610   26.8380    7.5050 C.3   184  GLY184      0.1956
     77  C         51.2140   27.4180    8.7500 C.2   184  GLY184      0.2612
     78  O         50.5670   28.1310    9.5160 O.2   184  GLY184     -0.2717
     79  N         52.5080   27.1450    8.9160 N.am  185  GLY185     -0.1942
     80  CA        53.2200   27.4060   10.1560 C.3   185  GLY185      0.2014
     81  C         53.8460   28.7810   10.3630 C.2   185  GLY185      0.2639
     82  O         54.7870   28.8910   11.1400 O.2   185  GLY185     -0.2714
     83  N         53.3360   29.8110    9.6910 N.am  186  GLY186     -0.1954
     84  CA        53.7880   31.1720    9.9120 C.3   186  GLY186      0.1869
     85  C         55.2320   31.4070    9.5090 C.2   186  GLY186      0.2309
     86  O         55.6810   30.9070    8.4620 O.2   186  GLY186     -0.2863
     87  N         56.7710   27.8630   15.6290 N.3   190  PHE190     -0.1241
     88  CA        56.3880   26.6170   16.3020 C.3   190  PHE190      0.1605
     89  C         57.4140   25.5410   15.9620 C.2   190  PHE190      0.2264
     90  O         57.8460   24.7780   16.8350 O.2   190  PHE190     -0.2867
     91  CB        54.9840   26.1880   15.8500 C.3   190  PHE190      0.0534
     92  CG        54.2410   25.2560   16.7990 C.ar  190  PHE190     -0.0203
     93  CD1       52.8690   25.0840   16.6380 C.ar  190  PHE190     -0.0042
     94  CD2       54.8740   24.5390   17.8120 C.ar  190  PHE190     -0.0042
     95  CE1       52.1400   24.2330   17.4590 C.ar  190  PHE190     -0.0003
     96  CE2       54.1340   23.6730   18.6450 C.ar  190  PHE190     -0.0003
     97  CZ        52.7690   23.5250   18.4500 C.ar  190  PHE190     -0.0000
     98  N         55.3030   24.3640    5.9130 N.3   206  LEU206     -0.1231
     99  CA        54.5530   24.5960    4.6750 C.3   206  LEU206      0.1693
    100  C         53.8260   25.9440    4.7760 C.2   206  LEU206      0.2592
    101  O         53.1410   26.1800    5.7450 O.2   206  LEU206     -0.2718
    102  CB        53.5580   23.4510    4.4190 C.3   206  LEU206      0.0284
    103  CG        52.6200   23.6750    3.2330 C.3   206  LEU206      0.0019
    104  CD1       53.4190   23.9130    1.9660 C.3   206  LEU206      0.0001
    105  CD2       51.6830   22.4910    3.0630 C.3   206  LEU206      0.0001
    106  N         54.0140   26.8120    3.7780 N.am  207  GLU207     -0.1966
    107  CA        53.4610   28.1710    3.7670 C.3   207  GLU207      0.1733
    108  C         53.2880   28.7600    2.3500 C.2   207  GLU207      0.2616
    109  O         53.7050   28.1620    1.3630 O.2   207  GLU207     -0.2715
    110  CB        54.3270   29.1110    4.6220 C.3   207  GLU207      0.0429
    111  CG        53.7690   29.3760    6.0140 C.3   207  GLU207      0.1163
    112  CD        52.4400   30.1180    6.0200 C.2   207  GLU207      0.3649
    113  OE1       51.7210   30.0090    7.0400 O.co2 207  GLU207     -0.2457
    114  OE2       52.1180   30.8140    5.0290 O.co2 207  GLU207     -0.2457
    115  N         52.6620   29.9330    2.2710 N.am  208  MET208     -0.1977
    116  CA        52.3740   30.5870    0.9980 C.3   208  MET208      0.1605
    117  C         53.5430   31.4460    0.5760 C.2   208  MET208      0.2287
    118  O         54.4500   31.6950    1.3660 O.2   208  MET208     -0.2864
    119  CB        51.1400   31.4720    1.1030 C.3   208  MET208      0.0413
    120  CG        49.9320   30.7820    1.6850 C.3   208  MET208      0.0598
    121  SD        48.4550   31.6300    1.1850 S.3   208  MET208     -0.1393
    122  CE        47.8850   32.4840    2.7120 C.3   208  MET208      0.0692
    123  N         53.8150   26.0920   -0.8700 N.3   233  GLY233     -0.1210
    124  CA        52.7460   25.2650   -1.3970 C.3   233  GLY233      0.1956
    125  C         51.3300   25.5960   -0.9120 C.2   233  GLY233      0.2612
    126  O         51.0380   26.6410   -0.3270 O.2   233  GLY233     -0.2717
    127  N         50.4320   24.6600   -1.1720 N.am  234  ASP234     -0.1959
    128  CA        49.0070   24.8210   -0.9350 C.3   234  ASP234      0.1840
    129  C         48.5500   23.5660   -0.1700 C.2   234  ASP234      0.2622
    130  O         48.6840   22.4520   -0.6770 O.2   234  ASP234     -0.2715
    131  CB        48.3090   24.9860   -2.2980 C.3   234  ASP234      0.1450
    132  CG        46.8040   25.1070   -2.1990 C.2   234  ASP234      0.3671
    133  OD1       46.2610   25.0230   -1.0890 O.co2 234  ASP234     -0.2456
    134  OD2       46.0670   25.2540   -3.1960 O.co2 234  ASP234     -0.2456
    135  N         48.0520   23.7480    1.0570 N.am  235  PHE235     -0.1960
    136  CA        47.6390   22.6210    1.9150 C.3   235  PHE235      0.1771
    137  C         46.2740   22.0190    1.5480 C.2   235  PHE235      0.2619
    138  O         45.8200   21.0570    2.1610 O.2   235  PHE235     -0.2715
    139  CB        47.6970   22.9730    3.4110 C.3   235  PHE235      0.0574
    140  CG        46.9070   24.2220    3.8310 C.ar  235  PHE235     -0.0200
    141  CD1       45.6160   24.4660    3.3810 C.ar  235  PHE235     -0.0042
    142  CD2       47.4730   25.1200    4.7370 C.ar  235  PHE235     -0.0042
    143  CE1       44.9130   25.5960    3.8150 C.ar  235  PHE235     -0.0003
    144  CE2       46.7800   26.2360    5.1850 C.ar  235  PHE235     -0.0003
    145  CZ        45.4930   26.4790    4.7290 C.ar  235  PHE235     -0.0000
    146  N         45.6440   22.5810    0.5240 N.am  236  PHE236     -0.1974
    147  CA        44.5220   21.9360   -0.1170 C.3   236  PHE236      0.1639
    148  C         44.9540   20.8340   -1.0960 C.2   236  PHE236      0.2290
    149  O         44.1300   20.0180   -1.4850 O.2   236  PHE236     -0.2864
    150  CB        43.6280   22.9800   -0.7880 C.3   236  PHE236      0.0560
    151  CG        42.8500   23.8150    0.1970 C.ar  236  PHE236     -0.0200
    152  CD1       43.0830   25.1670    0.3230 C.ar  236  PHE236     -0.0042
    153  CD2       41.9160   23.2320    1.0100 C.ar  236  PHE236     -0.0042
    154  CE1       42.3640   25.9320    1.2270 C.ar  236  PHE236     -0.0003
    155  CE2       41.1910   23.9920    1.9110 C.ar  236  PHE236     -0.0003
    156  CZ        41.4360   25.3510    2.0240 C.ar  236  PHE236     -0.0000
    157  N         48.3200   24.9750   13.5000 N.3   249  SER249     -0.1202
    158  CA        48.3010   25.9730   14.5470 C.3   249  SER249      0.2020
    159  C         47.5970   27.2240   14.0420 C.2   249  SER249      0.2619
    160  O         48.1370   27.9480   13.2110 O.2   249  SER249     -0.2717
    161  CB        49.7330   26.3040   14.9490 C.3   249  SER249      0.2103
    162  OG        49.7640   27.3590   15.8890 O.3   249  SER249     -0.2182
    163  N         46.3900   27.4530   14.5500 N.am  250  PHE250     -0.1961
    164  CA        45.5840   28.6200   14.2070 C.3   250  PHE250      0.1771
    165  C         45.4140   28.7440   12.7030 C.2   250  PHE250      0.2619
    166  O         45.6210   29.8100   12.1240 O.2   250  PHE250     -0.2715
    167  CB        46.1520   29.8940   14.8390 C.3   250  PHE250      0.0574
    168  CG        45.7800   30.0440   16.2700 C.ar  250  PHE250     -0.0200
    169  CD1       46.5400   29.4390   17.2660 C.ar  250  PHE250     -0.0042
    170  CD2       44.6400   30.7470   16.6280 C.ar  250  PHE250     -0.0042
    171  CE1       46.1850   29.5470   18.5890 C.ar  250  PHE250     -0.0003
    172  CE2       44.2890   30.8690   17.9730 C.ar  250  PHE250     -0.0003
    173  CZ        45.0630   30.2600   18.9460 C.ar  250  PHE250     -0.0000
    174  N         45.0360   27.6150   12.1020 N.am  251  VAL251     -0.1977
    175  CA        44.7280   27.5140   10.6930 C.3   251  VAL251      0.1596
    176  C         43.2380   27.2150   10.5310 C.2   251  VAL251      0.2287
    177  O         42.5290   27.9380    9.8370 O.2   251  VAL251     -0.2864
    178  CB        45.6000   26.4020   10.0170 C.3   251  VAL251      0.0276
    179  CG1       44.9590   25.8720    8.7280 C.3   251  VAL251      0.0022
    180  CG2       47.0260   26.9110    9.7540 C.3   251  VAL251      0.0022
    181  N         40.3520   29.7110   10.3630 N.3   254  ASN254     -0.1225
    182  CA        40.1910   30.4380    9.0860 C.3   254  ASN254      0.1785
    183  C         39.2180   29.8190    8.0660 C.2   254  ASN254      0.2597
    184  O         38.9470   30.4390    7.0640 O.2   254  ASN254     -0.2718
    185  CB        41.5110   30.5550    8.3160 C.3   254  ASN254      0.1169
    186  CG        42.6330   31.1900    9.0880 C.2   254  ASN254      0.2627
    187  OD1       43.7310   31.2660    8.5470 O.2   254  ASN254     -0.2716
    188  ND2       42.3990   31.6310   10.3320 N.am  254  ASN254     -0.0877
    189  N         38.7260   28.6060    8.2740 N.am  255  TRP255     -0.1976
    190  CA        38.0130   27.8900    7.2110 C.3   255  TRP255      0.1640
    191  C         36.6280   27.3630    7.6210 C.2   255  TRP255      0.2290
    192  O         36.4390   26.8870    8.7500 O.2   255  TRP255     -0.2864
    193  CB        38.8860   26.7320    6.7070 C.3   255  TRP255      0.0576
    194  CG        40.1980   27.2400    6.2000 C.ar  255  TRP255      0.0006
    195  CD1       41.3890   27.2620    6.8680 C.ar  255  TRP255      0.0946
    196  CD2       40.4350   27.8830    4.9400 C.ar  255  TRP255      0.0152
    197  NE1       42.3540   27.8600    6.0910 N.ar  255  TRP255     -0.2442
    198  CE2       41.7930   28.2540    4.9050 C.ar  255  TRP255      0.0810
    199  CE3       39.6350   28.1610    3.8230 C.ar  255  TRP255      0.0012
    200  CZ2       42.3710   28.8790    3.7980 C.ar  255  TRP255      0.0191
    201  CZ3       40.2060   28.7880    2.7240 C.ar  255  TRP255      0.0001
    202  CH2       41.5620   29.1410    2.7200 C.ar  255  TRP255      0.0015
@<TRIPOS>BOND
     1   134   132   ar
     2   131   132    1
     3   131   128    1
     4   132   133   ar
     5   149   148    2
     6   124   125    1
     7   124   123    1
     8   127   128    1
     9   127   125   am
    10   148   147    1
    11   128   129    1
    12   125   126    2
    13   150   147    1
    14   150   151    1
    15   130   129    2
    16     4     3    2
    17     3     2    1
    18   129   135   am
    19   147   146    1
    20   151   152   ar
    21   151   153   ar
    22   152   154   ar
    23   146   137   am
    24   117   116    1
    25   117   118    2
    26   116   119    1
    27   116   115    1
    28   153   155   ar
    29   135   136    1
    30   119   120    1
    31   121   120    1
    32   121   122    1
    33   154   156   ar
    34     2     1    1
    35     2     5    1
    36   109   108    2
    37   137   136    1
    38   137   138    2
    39     5     6    1
    40   155   156   ar
    41   136   139    1
    42   104   103    1
    43    17    18    1
    44    17    14    1
    45   115   108   am
    46    18    19    1
    47   108   107    1
    48    19    20    1
    49   202   201   ar
    50   202   200   ar
    51   201   199   ar
    52   105   103    1
    53     6     7   ar
    54     6     8   ar
    55    22    21    1
    56    13    14    1
    57   103   102    1
    58   141   143   ar
    59   141   140   ar
    60   139   140    1
    61    14    15    1
    62     7     9   ar
    63    20    21    2
    64   107   106    1
    65   107   110    1
    66   106   100   am
    67   200   198   ar
    68   143   145   ar
    69   199   196   ar
    70   140   142   ar
    71     8    10   ar
    72    21    23    1
    73   102    99    1
    74    15    16    2
    75   110   111    1
    76    99   100    1
    77    99    98    1
    78   145   144   ar
    79   142   144   ar
    80   100   101    2
    81   198   196   ar
    82   198   197   ar
    83   196   194   ar
    84   114   112   ar
    85     9    11   ar
    86    10    11   ar
    87    42    40   ar
    88    11    12    1
    89   111   112    1
    90   112   113   ar
    91   197   195   ar
    92   194   193    1
    93   194   195   ar
    94   193   190    1
    95    40    41   ar
    96    40    39    1
    97   184   183    2
    98   190   191    1
    99   190   189    1
   100    75    76    1
   101    76    77    1
   102   191   192    2
   103    28    29    1
   104    28    25    1
   105    31    29   ar
   106    31    33   ar
   107   183   189   am
   108   183   182    1
   109    24    25    1
   110    39    36    1
   111    29    30   ar
   112   185   182    1
   113   185   186    1
   114    70    69    2
   115    33    34   ar
   116    86    85    2
   117   187   186    2
   118    35    36    1
   119    35    26   am
   120    25    26    1
   121   179   178    1
   122    77    79   am
   123    77    78    2
   124    79    80    1
   125    30    32   ar
   126   182   181    1
   127   186   188   am
   128    36    37    1
   129    69    68    1
   130    34    32   ar
   131    26    27    2
   132    85    84    1
   133    83    84    1
   134    83    81   am
   135   180   178    1
   136    67    68    1
   137   177   176    2
   138   178   175    1
   139    80    81    1
   140    68    71    1
   141    81    82    2
   142    37    38    2
   143   176   175    1
   144   175   174    1
   145    71    72    1
   146    73    72   ar
   147    72    74   ar
   148    49    48    1
   149   174   165   am
   150   166   165    2
   151    48    47    1
   152    48    50    1
   153   165   164    1
   154    47    44    1
   155   160   159    2
   156   157   158    1
   157    43    44    1
   158    55    52    1
   159   159   158    1
   160   159   163   am
   161    44    45    1
   162   164   163    1
   163   164   167    1
   164    51    45   am
   165    51    52    1
   166   158   161    1
   167    45    46    2
   168    52    53    1
   169   167   168    1
   170   161   162    1
   171    87    88    1
   172    91    88    1
   173    91    92    1
   174    53    54    2
   175    89    88    1
   176    89    90    2
   177   168   170   ar
   178   168   169   ar
   179    66    64   ar
   180    66    65   ar
   181   170   172   ar
   182    93    92   ar
   183    93    95   ar
   184    92    94   ar
   185    64    62   ar
   186    65    63   ar
   187   169   171   ar
   188    95    97   ar
   189    94    96   ar
   190    62    61   ar
   191   172   173   ar
   192    63    61   ar
   193    97    96   ar
   194    61    60    1
   195   171   173   ar
   196    60    57    1
   197    57    56    1
   198    57    58    1
   199    59    58    2
