@<TRIPOS>MOLECULE
tmp/1tw5B00.pdb
 132 132 0 0 0
SMALL
GASTEIGER

@<TRIPOS>ATOM
      1  N         21.4330   72.1720   50.1380 N.3   149  LYS149     -0.1231
      2  CA        20.8360   73.4510   49.7670 C.3   149  LYS149      0.1693
      3  C         19.8430   73.9830   50.8020 C.2   149  LYS149      0.2592
      4  O         19.6570   75.1860   50.9300 O.2   149  LYS149     -0.2718
      5  CB        20.1600   73.3050   48.3940 C.3   149  LYS149      0.0285
      6  CG        19.2670   74.4520   48.0290 C.3   149  LYS149      0.0035
      7  CD        18.9130   74.4770   46.5510 C.3   149  LYS149      0.0206
      8  CE        17.8590   73.4930   46.2000 C.3   149  LYS149      0.1093
      9  NZ        17.4960   73.6600   44.7750 N.3   149  LYS149     -0.1314
     10  N         19.1960   73.0850   51.5320 N.am  150  PHE150     -0.1976
     11  CA        18.2500   73.5000   52.5560 C.3   150  PHE150      0.1639
     12  C         18.8450   73.2170   53.9470 C.2   150  PHE150      0.2290
     13  O         18.1310   73.0180   54.9270 O.2   150  PHE150     -0.2864
     14  CB        16.9170   72.7670   52.3630 C.3   150  PHE150      0.0560
     15  CG        16.2450   73.0770   51.0590 C.ar  150  PHE150     -0.0200
     16  CD1       15.6250   72.0720   50.3210 C.ar  150  PHE150     -0.0042
     17  CD2       16.2530   74.3700   50.5480 C.ar  150  PHE150     -0.0042
     18  CE1       15.0330   72.3410   49.1030 C.ar  150  PHE150     -0.0003
     19  CE2       15.6580   74.6540   49.3150 C.ar  150  PHE150     -0.0003
     20  CZ        15.0470   73.6330   48.5910 C.ar  150  PHE150     -0.0000
     21  N         12.7440   72.3060   53.7070 N.3   155  PRO155     -0.2102
     22  CA        12.4620   73.7390   53.8300 C.3   155  PRO155      0.1504
     23  C         11.1060   73.9470   54.5240 C.2   155  PRO155      0.2575
     24  O         10.8880   74.9150   55.2670 O.2   155  PRO155     -0.2718
     25  CB        12.4880   74.2210   52.3730 C.3   155  PRO155      0.0282
     26  CG        12.0800   72.9860   51.5900 C.3   155  PRO155      0.0208
     27  CD        12.8740   71.9090   52.2930 C.3   155  PRO155      0.0893
     28  N         10.1840   73.0380   54.2550 N.am  156  TYR156     -0.1977
     29  CA         8.8690   73.0680   54.8740 C.3   156  TYR156      0.1639
     30  C          8.3770   71.6440   54.8320 C.2   156  TYR156      0.2290
     31  O          8.8010   70.8670   53.9790 O.2   156  TYR156     -0.2864
     32  CB         7.8880   74.0600   54.1920 C.3   156  TYR156      0.0560
     33  CG         7.6940   73.9780   52.6830 C.ar  156  TYR156     -0.0198
     34  CD1        6.6020   73.2960   52.1260 C.ar  156  TYR156     -0.0009
     35  CD2        8.5730   74.6300   51.8170 C.ar  156  TYR156     -0.0009
     36  CE1        6.3890   73.2690   50.7460 C.ar  156  TYR156      0.0417
     37  CE2        8.3740   74.6090   50.4390 C.ar  156  TYR156      0.0417
     38  CZ         7.2840   73.9290   49.9110 C.ar  156  TYR156      0.1957
     39  OH         7.1140   73.9200   48.5540 O.3   156  TYR156     -0.2866
     40  N          7.0420   69.9680   51.6260 N.3   159  TYR159     -0.1241
     41  CA         7.9410   69.9500   50.4890 C.3   159  TYR159      0.1605
     42  C          8.0330   68.5730   49.8090 C.2   159  TYR159      0.2264
     43  O          8.4500   67.5760   50.4060 O.2   159  TYR159     -0.2867
     44  CB         9.3280   70.4150   50.9240 C.3   159  TYR159      0.0534
     45  CG        10.3430   70.3600   49.8110 C.ar  159  TYR159     -0.0201
     46  CD1       10.1310   71.0280   48.6180 C.ar  159  TYR159     -0.0009
     47  CD2       11.5020   69.6110   49.9440 C.ar  159  TYR159     -0.0009
     48  CE1       11.0580   70.9480   47.5800 C.ar  159  TYR159      0.0417
     49  CE2       12.4220   69.5270   48.9180 C.ar  159  TYR159      0.0417
     50  CZ        12.1940   70.1960   47.7410 C.ar  159  TYR159      0.1957
     51  OH        13.1080   70.0930   46.7180 O.3   159  TYR159     -0.2866
     52  N          9.4140   68.4740   46.4810 N.3   161  GLY161     -0.1225
     53  CA        10.1990   68.7430   45.2880 C.3   161  GLY161      0.1811
     54  C         11.4600   67.9000   45.2750 C.2   161  GLY161      0.2280
     55  O         11.6850   67.1200   46.1930 O.2   161  GLY161     -0.2866
     56  N          8.6590   78.0390   36.6960 N.3   184  TRP184     -0.1227
     57  CA         9.0740   77.5360   37.9900 C.3   184  TRP184      0.1737
     58  C          8.1060   77.7080   39.1550 C.2   184  TRP184      0.2596
     59  O          7.3660   78.6930   39.2160 O.2   184  TRP184     -0.2718
     60  CB        10.4090   78.1980   38.3460 C.3   184  TRP184      0.0564
     61  CG        11.0360   77.6970   39.5920 C.ar  184  TRP184      0.0003
     62  CD1       11.8900   76.6360   39.7070 C.ar  184  TRP184      0.0946
     63  CD2       10.8010   78.1720   40.9200 C.ar  184  TRP184      0.0152
     64  NE1       12.1960   76.4180   41.0220 N.ar  184  TRP184     -0.2442
     65  CE2       11.5410   77.3450   41.7930 C.ar  184  TRP184      0.0810
     66  CE3       10.0330   79.2130   41.4590 C.ar  184  TRP184      0.0012
     67  CZ2       11.5350   77.5240   43.1850 C.ar  184  TRP184      0.0191
     68  CZ3       10.0240   79.3970   42.8450 C.ar  184  TRP184      0.0001
     69  CH2       10.7710   78.5530   43.6910 C.ar  184  TRP184      0.0015
     70  N          8.1330   76.7140   40.0520 N.am  185  GLY185     -0.1942
     71  CA         7.3570   76.7110   41.2850 C.3   185  GLY185      0.2014
     72  C          5.9190   76.2380   41.4570 C.2   185  GLY185      0.2639
     73  O          5.0740   76.3730   40.5740 O.2   185  GLY185     -0.2714
     74  N          5.6500   75.6770   42.6330 N.am  186  GLY186     -0.1939
     75  CA         4.3030   75.2380   42.9550 C.3   186  GLY186      0.2014
     76  C          3.7920   73.8840   42.4920 C.2   186  GLY186      0.2639
     77  O          2.9700   73.2880   43.1890 O.2   186  GLY186     -0.2714
     78  N          4.2790   73.3820   41.3560 N.am  187  GLU187     -0.1963
     79  CA         3.8020   72.1130   40.8220 C.3   187  GLU187      0.1733
     80  C          3.9930   70.9920   41.8250 C.2   187  GLU187      0.2616
     81  O          3.1510   70.0950   41.9280 O.2   187  GLU187     -0.2715
     82  CB         4.4870   71.7790   39.4760 C.3   187  GLU187      0.0429
     83  CG         5.7330   70.8930   39.5580 C.3   187  GLU187      0.1163
     84  CD         6.9670   71.5850   40.1370 C.2   187  GLU187      0.3649
     85  OE1        7.8910   70.8530   40.5250 O.co2 187  GLU187     -0.2457
     86  OE2        7.0370   72.8330   40.1930 O.co2 187  GLU187     -0.2457
     87  N          5.0820   71.0420   42.5800 N.am  188  ASP188     -0.1957
     88  CA         5.3190   70.0120   43.5830 C.3   188  ASP188      0.1840
     89  C          4.3680   70.2050   44.7600 C.2   188  ASP188      0.2622
     90  O          3.8750   69.2380   45.3250 O.2   188  ASP188     -0.2715
     91  CB         6.7720   70.0290   44.0450 C.3   188  ASP188      0.1450
     92  CG         7.2530   71.4140   44.3870 C.2   188  ASP188      0.3671
     93  OD1        8.4210   71.5390   44.8190 O.co2 188  ASP188     -0.2456
     94  OD2        6.4670   72.3790   44.2210 O.co2 188  ASP188     -0.2456
     95  N          4.0770   71.4480   45.1170 N.am  189  ASP189     -0.1971
     96  CA         3.1280   71.6880   46.2120 C.3   189  ASP189      0.1709
     97  C          1.7230   71.2490   45.7590 C.2   189  ASP189      0.2293
     98  O          0.8950   70.8200   46.5590 O.2   189  ASP189     -0.2864
     99  CB         3.0840   73.1730   46.5970 C.3   189  ASP189      0.1436
    100  CG         4.4060   73.6800   47.0960 C.2   189  ASP189      0.3671
    101  OD1        5.0630   72.9560   47.8600 O.co2 189  ASP189     -0.2456
    102  OD2        4.7900   74.8070   46.7320 O.co2 189  ASP189     -0.2456
    103  N          1.2890   80.4600   40.2510 N.3   229  ARG229     -0.1231
    104  CA         1.4410   79.3180   41.1450 C.3   229  ARG229      0.1694
    105  C          0.6950   79.3620   42.4700 C.2   229  ARG229      0.2592
    106  O          0.0730   78.3680   42.8620 O.2   229  ARG229     -0.2718
    107  CB         2.9340   79.0310   41.3800 C.3   229  ARG229      0.0321
    108  CG         3.7160   80.0490   42.2240 C.3   229  ARG229      0.0489
    109  CD         5.2200   79.6750   42.2250 C.3   229  ARG229      0.2205
    110  NE         6.0680   80.5390   43.0490 N.pl3 229  ARG229     -0.0865
    111  CZ         6.4360   81.7810   42.7350 C.cat 229  ARG229      0.5346
    112  NH1        6.0310   82.3570   41.6100 N.pl3 229  ARG229      0.1354
    113  NH2        7.2650   82.4320   43.5280 N.pl3 229  ARG229      0.1354
    114  N          0.7470   80.5060   43.1470 N.am  230  PHE230     -0.1976
    115  CA         0.1170   80.6700   44.4420 C.3   230  PHE230      0.1639
    116  C         -1.3830   80.5090   44.3840 C.2   230  PHE230      0.2290
    117  O         -1.9850   79.9600   45.3050 O.2   230  PHE230     -0.2864
    118  CB         0.4860   82.0270   45.0340 C.3   230  PHE230      0.0560
    119  CG         1.9620   82.2090   45.2290 C.ar  230  PHE230     -0.0200
    120  CD1        2.6900   83.0640   44.4050 C.ar  230  PHE230     -0.0042
    121  CD2        2.6240   81.5240   46.2280 C.ar  230  PHE230     -0.0042
    122  CE1        4.0490   83.2330   44.5790 C.ar  230  PHE230     -0.0003
    123  CE2        3.9980   81.6810   46.4160 C.ar  230  PHE230     -0.0003
    124  CZ         4.7130   82.5360   45.5930 C.ar  230  PHE230     -0.0000
    125  N         -2.2090   76.6280   43.4610 N.3   233  ILE233     -0.1245
    126  CA        -2.0830   75.7660   44.6340 C.3   233  ILE233      0.1561
    127  C         -3.3090   75.8160   45.5460 C.2   233  ILE233      0.2260
    128  O         -3.6290   74.8560   46.2390 O.2   233  ILE233     -0.2867
    129  CB        -0.8710   76.1730   45.4700 C.3   233  ILE233      0.0252
    130  CG1        0.3980   75.8480   44.7020 C.3   233  ILE233      0.0019
    131  CG2       -0.8920   75.4740   46.8190 C.3   233  ILE233      0.0019
    132  CD1        1.6410   76.2100   45.4650 C.3   233  ILE233      0.0001
@<TRIPOS>BOND
     1    56    57    1
     2    57    60    1
     3    57    58    1
     4    60    61    1
     5    58    59    2
     6    58    70   am
     7    82    83    1
     8    82    79    1
     9    83    84    1
    10    61    62   ar
    11    61    63   ar
    12    62    64   ar
    13    70    71    1
    14    84    86   ar
    15    84    85   ar
    16   103   104    1
    17    73    72    2
    18    79    78    1
    19    79    80    1
    20    63    66   ar
    21    63    65   ar
    22    64    65   ar
    23   104   107    1
    24   104   105    1
    25    71    72    1
    26    78    76   am
    27   107   108    1
    28    72    74   am
    29    66    68   ar
    30   112   111    1
    31    65    67   ar
    32    80    81    2
    33    80    87   am
    34   108   109    1
    35   109   110    1
    36   105   106    2
    37   105   114   am
    38    76    75    1
    39    76    77    2
    40    87    88    1
    41    74    75    1
    42   111   110    2
    43   111   113    1
    44    68    69   ar
    45   114   115    1
    46    67    69   ar
    47   125   126    1
    48    88    91    1
    49    88    89    1
    50    91    92    1
    51    94    92   ar
    52   116   115    1
    53   116   117    2
    54    92    93   ar
    55   120   122   ar
    56   120   119   ar
    57   115   118    1
    58   122   124   ar
    59   126   129    1
    60   126   127    1
    61   130   132    1
    62   130   129    1
    63    89    95   am
    64    89    90    2
    65     9     8    1
    66   118   119    1
    67    95    96    1
    68   119   121   ar
    69    54    53    1
    70    54    55    2
    71    53    52    1
    72   129   131    1
    73   127   128    2
    74   124   123   ar
    75    97    96    1
    76    97    98    2
    77     8     7    1
    78    96    99    1
    79   121   123   ar
    80     7     6    1
    81    99   100    1
    82    51    50    1
    83   102   100   ar
    84   100   101   ar
    85    48    50   ar
    86    48    46   ar
    87    50    49   ar
    88     6     5    1
    89     5     2    1
    90    39    38    1
    91    20    18   ar
    92    20    19   ar
    93    46    45   ar
    94    49    47   ar
    95    18    16   ar
    96    19    17   ar
    97     2     1    1
    98     2     3    1
    99    42    43    2
   100    42    41    1
   101    45    47   ar
   102    45    44    1
   103    38    37   ar
   104    38    36   ar
   105    16    15   ar
   106    37    35   ar
   107    41    44    1
   108    41    40    1
   109    17    15   ar
   110    36    34   ar
   111     3     4    2
   112     3    10   am
   113    15    14    1
   114    10    11    1
   115    26    27    1
   116    26    25    1
   117    35    33   ar
   118    34    33   ar
   119    27    21    1
   120    14    11    1
   121    25    22    1
   122    11    12    1
   123    33    32    1
   124    21    22    1
   125    22    23    1
   126    12    13    2
   127    31    30    2
   128    32    29    1
   129    28    23   am
   130    28    29    1
   131    23    24    2
   132    30    29    1
