@<TRIPOS>MOLECULE
tmp/1tw6A00.pdb
 135 134 0 0 0
SMALL
GASTEIGER

@<TRIPOS>ATOM
      1  N         77.6940   63.8910   27.3900 N.3    39  THR39      -0.1218
      2  CA        76.2270   63.8830   27.4850 C.3    39  THR39       0.1862
      3  C         75.6990   62.8190   28.4420 C.2    39  THR39       0.2287
      4  O         74.5650   62.9160   28.9000 O.2    39  THR39      -0.2866
      5  CB        75.5570   63.6700   26.1100 C.3    39  THR39       0.1770
      6  OG1       75.8620   62.3580   25.6140 O.3    39  THR39      -0.2211
      7  CG2       76.0960   64.6310   25.0670 C.3    39  THR39       0.0375
      8  N         79.0880   60.0570   23.4380 N.3    44  LYS44      -0.1231
      9  CA        78.6550   61.3150   22.8440 C.3    44  LYS44       0.1693
     10  C         79.0550   62.4840   23.7350 C.2    44  LYS44       0.2592
     11  O         78.7450   62.4960   24.9250 O.2    44  LYS44      -0.2718
     12  CB        77.1380   61.3110   22.6330 C.3    44  LYS44       0.0285
     13  CG        76.6640   60.3460   21.5540 C.3    44  LYS44       0.0035
     14  CD        75.1810   60.0150   21.6950 C.3    44  LYS44       0.0206
     15  CE        74.6870   59.1430   20.5450 C.3    44  LYS44       0.1093
     16  NZ        75.3310   57.7990   20.5190 N.3    44  LYS44      -0.1314
     17  N         79.7530   63.4550   23.1520 N.am   45  VAL45      -0.1966
     18  CA        80.1470   64.6840   23.8320 C.3    45  VAL45       0.1727
     19  C         79.6460   65.8860   23.0360 C.2    45  VAL45       0.2616
     20  O         79.2960   65.7610   21.8620 O.2    45  VAL45      -0.2715
     21  CB        81.6840   64.7760   24.0100 C.3    45  VAL45       0.0290
     22  CG1       82.2080   63.5380   24.7220 C.3    45  VAL45       0.0023
     23  CG2       82.4040   64.9690   22.6550 C.3    45  VAL45       0.0023
     24  N         79.6110   67.0470   23.6790 N.am   46  ARG46      -0.1977
     25  CA        79.1340   68.2650   23.0390 C.3    46  ARG46       0.1597
     26  C         79.9330   69.4760   23.5090 C.2    46  ARG46       0.2287
     27  O         80.3050   69.5580   24.6720 O.2    46  ARG46      -0.2864
     28  CB        77.6540   68.4480   23.3590 C.3    46  ARG46       0.0334
     29  CG        76.9650   69.4790   22.5010 C.3    46  ARG46       0.0492
     30  CD        75.4680   69.5840   22.7500 C.3    46  ARG46       0.2205
     31  NE        74.7640   68.3250   22.5370 N.pl3  46  ARG46      -0.0865
     32  CZ        74.4450   67.8290   21.3470 C.cat  46  ARG46       0.5346
     33  NH1       74.7720   68.4600   20.2260 N.pl3  46  ARG46       0.1354
     34  NH2       73.7970   66.6800   21.2750 N.pl3  46  ARG46       0.1354
     35  N         78.1510   68.2760   18.4370 N.3    53  GLY53      -0.1210
     36  CA        78.2290   66.9830   19.0980 C.3    53  GLY53       0.1956
     37  C         79.0960   66.0140   18.3230 C.2    53  GLY53       0.2612
     38  O         79.0300   65.9700   17.0990 O.2    53  GLY53      -0.2717
     39  N         79.9070   65.2390   19.0420 N.am   54  LEU54      -0.1965
     40  CA        80.7790   64.2320   18.4420 C.3    54  LEU54       0.1728
     41  C         80.6280   62.8970   19.1590 C.2    54  LEU54       0.2616
     42  O         80.4650   62.8570   20.3750 O.2    54  LEU54      -0.2715
     43  CB        82.2370   64.6800   18.5140 C.3    54  LEU54       0.0311
     44  CG        82.6130   65.9060   17.6810 C.3    54  LEU54       0.0022
     45  CD1       84.0260   66.3460   17.9950 C.3    54  LEU54       0.0001
     46  CD2       82.4590   65.6110   16.1960 C.3    54  LEU54       0.0001
     47  N         80.6820   61.8150   18.3880 N.am   55  GLN55      -0.1963
     48  CA        80.6130   60.4570   18.9140 C.3    55  GLN55       0.1733
     49  C         81.5930   59.5380   18.1800 C.2    55  GLN55       0.2617
     50  O         82.3280   59.9800   17.2980 O.2    55  GLN55      -0.2715
     51  CB        79.1830   59.9250   18.7930 C.3    55  GLN55       0.0408
     52  CG        78.7050   59.7150   17.3650 C.3    55  GLN55       0.0908
     53  CD        77.3770   58.9870   17.3020 C.2    55  GLN55       0.2608
     54  OE1       76.3260   59.6060   17.4160 O.2    55  GLN55      -0.2717
     55  NE2       77.4240   57.6710   17.1270 N.am   55  GLN55      -0.0878
     56  N         81.5950   58.2570   18.5430 N.am   56  SER56      -0.1936
     57  CA        82.4260   57.2530   17.8740 C.3    56  SER56       0.2055
     58  C         83.9060   57.6430   17.9050 C.2    56  SER56       0.2643
     59  O         84.6020   57.6380   16.8840 O.2    56  SER56      -0.2714
     60  CB        81.9380   57.0180   16.4400 C.3    56  SER56       0.2130
     61  OG        80.5750   56.6290   16.4470 O.3    56  SER56      -0.2179
     62  N         84.3710   57.9710   19.1050 N.am   57  TRP57      -0.1959
     63  CA        85.7660   58.3180   19.3390 C.3    57  TRP57       0.1771
     64  C         86.6600   57.0920   19.1560 C.2    57  TRP57       0.2619
     65  O         86.3240   55.9900   19.5940 O.2    57  TRP57      -0.2715
     66  CB        85.9300   58.9150   20.7450 C.3    57  TRP57       0.0590
     67  CG        85.2800   60.2680   20.8660 C.ar   57  TRP57       0.0006
     68  CD1       83.9720   60.5310   21.1630 C.ar   57  TRP57       0.0946
     69  CD2       85.8990   61.5370   20.6400 C.ar   57  TRP57       0.0152
     70  NE1       83.7430   61.8840   21.1450 N.ar   57  TRP57      -0.2442
     71  CE2       84.9130   62.5270   20.8300 C.ar   57  TRP57       0.0810
     72  CE3       87.1990   61.9430   20.2990 C.ar   57  TRP57       0.0012
     73  CZ2       85.1830   63.8870   20.6920 C.ar   57  TRP57       0.0191
     74  CZ3       87.4650   63.2890   20.1590 C.ar   57  TRP57       0.0001
     75  CH2       86.4640   64.2490   20.3610 C.ar   57  TRP57       0.0015
     76  N         87.7860   57.2950   18.4790 N.am   58  LYS58      -0.1977
     77  CA        88.7490   56.2320   18.2220 C.3    58  LYS58       0.1596
     78  C         90.0210   56.4800   19.0150 C.2    58  LYS58       0.2287
     79  O         90.3290   57.6180   19.3620 O.2    58  LYS58      -0.2864
     80  CB        89.0860   56.1680   16.7290 C.3    58  LYS58       0.0298
     81  CG        87.8790   56.0060   15.8050 C.3    58  LYS58       0.0038
     82  CD        87.0660   54.7640   16.1440 C.3    58  LYS58       0.0206
     83  CE        86.1800   54.3280   14.9810 C.3    58  LYS58       0.1093
     84  NZ        84.9610   53.6230   15.4670 N.3    58  LYS58      -0.1314
     85  N         92.4590   59.7010   18.8820 N.3    61  ASP61      -0.1239
     86  CA        91.7650   60.9260   18.4780 C.3    61  ASP61       0.1674
     87  C         92.1780   62.0470   19.4160 C.2    61  ASP61       0.2266
     88  O         92.2870   61.8420   20.6240 O.2    61  ASP61      -0.2867
     89  CB        90.2420   60.7790   18.5870 C.3    61  ASP61       0.1410
     90  CG        89.6030   60.1590   17.3570 C.2    61  ASP61       0.3668
     91  OD1       90.2980   59.8360   16.3680 O.co2  61  ASP61      -0.2456
     92  OD2       88.3730   59.9480   17.3140 O.co2  61  ASP61      -0.2456
     93  N         89.6750   67.2820   16.4000 N.3    66  GLU66      -0.1245
     94  CA        88.3220   66.9250   15.9780 C.3    66  GLU66       0.1567
     95  C         87.3890   68.1360   16.0410 C.2    66  GLU66       0.2260
     96  O         86.5420   68.3060   15.1610 O.2    66  GLU66      -0.2867
     97  CB        87.7710   65.7750   16.8310 C.3    66  GLU66       0.0388
     98  CG        88.5330   64.4630   16.7070 C.3    66  GLU66       0.1160
     99  CD        88.6230   63.9480   15.2780 C.2    66  GLU66       0.3649
    100  OE1       87.5810   63.5800   14.7000 O.co2  66  GLU66      -0.2457
    101  OE2       89.7420   63.9010   14.7280 O.co2  66  GLU66      -0.2457
    102  N         88.2560   70.1350   12.9450 N.3    69  LYS69      -0.1231
    103  CA        87.8600   69.4010   11.7530 C.3    69  LYS69       0.1693
    104  C         86.3680   69.5700   11.4580 C.2    69  LYS69       0.2592
    105  O         85.9820   69.8660   10.3260 O.2    69  LYS69      -0.2718
    106  CB        88.1890   67.9140   11.9300 C.3    69  LYS69       0.0285
    107  CG        87.8110   67.0380   10.7490 C.3    69  LYS69       0.0035
    108  CD        88.2850   65.6030   10.9450 C.3    69  LYS69       0.0206
    109  CE        87.8900   64.7300    9.7550 C.3    69  LYS69       0.1093
    110  NZ        88.7600   63.5250    9.6310 N.3    69  LYS69      -0.1314
    111  N         85.5400   69.3970   12.4830 N.am   70  TRP70      -0.1962
    112  CA        84.0900   69.3180   12.3020 C.3    70  TRP70       0.1771
    113  C         83.3600   70.6420   12.5340 C.2    70  TRP70       0.2619
    114  O         82.3370   70.8970   11.8980 O.2    70  TRP70      -0.2715
    115  CB        83.5130   68.2390   13.2190 C.3    70  TRP70       0.0590
    116  CG        84.0220   66.8780   12.8940 C.ar   70  TRP70       0.0006
    117  CD1       84.8650   66.1150   13.6490 C.ar   70  TRP70       0.0946
    118  CD2       83.7310   66.1110   11.7220 C.ar   70  TRP70       0.0152
    119  NE1       85.1200   64.9230   13.0170 N.ar   70  TRP70      -0.2442
    120  CE2       84.4310   64.8890   11.8350 C.ar   70  TRP70       0.0810
    121  CE3       82.9480   66.3290   10.5800 C.ar   70  TRP70       0.0012
    122  CZ2       84.3750   63.8930   10.8520 C.ar   70  TRP70       0.0191
    123  CZ3       82.8930   65.3380    9.6040 C.ar   70  TRP70       0.0001
    124  CH2       83.6020   64.1360    9.7500 C.ar   70  TRP70       0.0015
    125  N         83.8840   71.4740   13.4340 N.am   71  PHE71      -0.1974
    126  CA        83.2500   72.7470   13.7920 C.3    71  PHE71       0.1639
    127  C         84.2470   73.9080   13.7310 C.2    71  PHE71       0.2290
    128  O         84.4770   74.5800   14.7370 O.2    71  PHE71      -0.2864
    129  CB        82.6220   72.6590   15.1910 C.3    71  PHE71       0.0560
    130  CG        81.8680   71.3800   15.4380 C.ar   71  PHE71      -0.0200
    131  CD1       80.7310   71.0770   14.7060 C.ar   71  PHE71      -0.0042
    132  CD2       82.3010   70.4810   16.4020 C.ar   71  PHE71      -0.0042
    133  CE1       80.0370   69.8930   14.9270 C.ar   71  PHE71      -0.0003
    134  CE2       81.6150   69.3010   16.6280 C.ar   71  PHE71      -0.0003
    135  CZ        80.4870   69.0040   15.8880 C.ar   71  PHE71      -0.0000
@<TRIPOS>BOND
     1   123   124   ar
     2   123   121   ar
     3   110   109    1
     4   124   122   ar
     5   109   108    1
     6   105   104    2
     7   121   118   ar
     8   107   108    1
     9   107   106    1
    10   122   120   ar
    11   104   103    1
    12   104   111   am
    13   118   120   ar
    14   118   116   ar
    15   103   106    1
    16   103   102    1
    17   120   119   ar
    18   114   113    2
    19   112   111    1
    20   112   113    1
    21   112   115    1
    22   113   125   am
    23   116   115    1
    24   116   117   ar
    25   119   117   ar
    26   125   126    1
    27   127   126    1
    28   127   128    2
    29   126   129    1
    30   100    99   ar
    31   131   133   ar
    32   131   130   ar
    33   101    99   ar
    34   133   135   ar
    35    83    84    1
    36    83    82    1
    37    96    95    2
    38   129   130    1
    39    99    98    1
    40   130   132   ar
    41    81    82    1
    42    81    80    1
    43   135   134   ar
    44    94    95    1
    45    94    93    1
    46    94    97    1
    47    46    44    1
    48    91    90   ar
    49   132   134   ar
    50    60    61    1
    51    60    57    1
    52    98    97    1
    53    80    77    1
    54    59    58    2
    55    38    37    2
    56    55    53   am
    57    50    49    2
    58    53    52    1
    59    53    54    2
    60    92    90   ar
    61    90    89    1
    62    52    51    1
    63    44    45    1
    64    44    43    1
    65    57    58    1
    66    57    56    1
    67    58    62   am
    68    49    56   am
    69    49    48    1
    70    77    76    1
    71    77    78    1
    72    37    39   am
    73    37    36    1
    74    47    48    1
    75    47    41   am
    76    35    36    1
    77    40    43    1
    78    40    39    1
    79    40    41    1
    80    86    89    1
    81    86    85    1
    82    86    87    1
    83    76    64   am
    84    51    48    1
    85    78    79    2
    86    62    63    1
    87    64    63    1
    88    64    65    2
    89    41    42    2
    90    63    66    1
    91    87    88    2
    92    74    72   ar
    93    74    75   ar
    94    33    32    1
    95    72    69   ar
    96    75    73   ar
    97    16    15    1
    98    15    14    1
    99    69    71   ar
   100    69    67   ar
   101    73    71   ar
   102    66    67    1
   103    71    70   ar
   104    67    68   ar
   105    70    68   ar
   106    34    32    1
   107    32    31    2
   108    13    14    1
   109    13    12    1
   110    20    19    2
   111    29    30    1
   112    29    28    1
   113    31    30    1
   114    12     9    1
   115    23    21    1
   116     9     8    1
   117     9    10    1
   118    19    24   am
   119    19    18    1
   120    25    28    1
   121    25    26    1
   122    25    24    1
   123    17    10   am
   124    17    18    1
   125    26    27    2
   126    10    11    2
   127    18    21    1
   128    21    22    1
   129     7     5    1
   130     6     5    1
   131     5     2    1
   132     1     2    1
   133     2     3    1
   134     3     4    2
