@<TRIPOS>MOLECULE
tmp/1tw6B00.pdb
 135 133 0 0 0
SMALL
GASTEIGER

@<TRIPOS>ATOM
      1  N         75.2260   62.5020   40.8520 N.3    39  THR39      -0.1218
      2  CA        75.0600   61.8150   39.5690 C.3    39  THR39       0.1862
      3  C         74.4150   62.6740   38.4890 C.2    39  THR39       0.2287
      4  O         74.3940   62.2700   37.3260 O.2    39  THR39      -0.2866
      5  CB        74.2070   60.5380   39.7100 C.3    39  THR39       0.1770
      6  OG1       72.8700   60.8920   40.0970 O.3    39  THR39      -0.2211
      7  CG2       74.7380   59.6240   40.8160 C.3    39  THR39       0.0375
      8  N         68.1910   64.2660   40.4340 N.3    42  GLN42      -0.1245
      9  CA        67.6060   64.5400   41.7480 C.3    42  GLN42       0.1566
     10  C         68.7200   64.8060   42.7740 C.2    42  GLN42       0.2260
     11  O         69.7010   65.4690   42.4400 O.2    42  GLN42      -0.2867
     12  CB        66.6490   63.4100   42.1540 C.3    42  GLN42       0.0367
     13  CG        65.4600   63.2400   41.2040 C.3    42  GLN42       0.0905
     14  CD        65.8030   62.4710   39.9290 C.2    42  GLN42       0.2608
     15  OE1       66.3400   61.3620   39.9900 O.2    42  GLN42      -0.2717
     16  NE2       65.4930   63.0610   38.7750 N.am   42  GLN42      -0.0878
     17  N         70.6090   62.4650   44.1310 N.3    44  LYS44      -0.1231
     18  CA        71.3060   61.1880   44.1520 C.3    44  LYS44       0.1693
     19  C         72.8090   61.3910   44.0960 C.2    44  LYS44       0.2592
     20  O         73.3140   62.1520   43.2680 O.2    44  LYS44      -0.2718
     21  CB        70.8900   60.3410   42.9520 C.3    44  LYS44       0.0285
     22  CG        69.4220   59.9840   42.9010 C.3    44  LYS44       0.0035
     23  CD        69.0570   59.4390   41.5300 C.3    44  LYS44       0.0206
     24  CE        67.7730   58.6380   41.5670 C.3    44  LYS44       0.1093
     25  NZ        66.6100   59.4190   42.0720 N.3    44  LYS44      -0.1314
     26  N         73.5260   60.7020   44.9760 N.am   45  VAL45      -0.1966
     27  CA        74.9790   60.7590   45.0040 C.3    45  VAL45       0.1727
     28  C         75.5410   59.3430   45.0720 C.2    45  VAL45       0.2616
     29  O         74.8550   58.4210   45.5080 O.2    45  VAL45      -0.2715
     30  CB        75.5090   61.5760   46.2160 C.3    45  VAL45       0.0290
     31  CG1       74.9030   62.9800   46.2380 C.3    45  VAL45       0.0023
     32  CG2       75.2190   60.8630   47.5390 C.3    45  VAL45       0.0023
     33  N         76.7810   59.1810   44.6230 N.am   46  ARG46      -0.1977
     34  CA        77.5190   57.9330   44.7870 C.3    46  ARG46       0.1597
     35  C         78.9010   58.1880   45.3750 C.2    46  ARG46       0.2287
     36  O         79.5160   59.2180   45.1230 O.2    46  ARG46      -0.2864
     37  CB        77.6830   57.2180   43.4430 C.3    46  ARG46       0.0334
     38  CG        76.3970   56.6780   42.8550 C.3    46  ARG46       0.0492
     39  CD        76.6280   55.7020   41.7260 C.3    46  ARG46       0.2205
     40  NE        75.3890   55.1360   41.1990 N.pl3  46  ARG46      -0.0865
     41  CZ        74.6430   54.2310   41.8210 C.cat  46  ARG46       0.5346
     42  NH1       74.9870   53.7570   43.0140 N.pl3  46  ARG46       0.1354
     43  NH2       73.5390   53.7860   41.2360 N.pl3  46  ARG46       0.1354
     44  N         75.2780   54.2630   46.4650 N.3    53  GLY53      -0.1210
     45  CA        74.4430   55.4060   46.1280 C.3    53  GLY53       0.1956
     46  C         73.3600   55.7090   47.1500 C.2    53  GLY53       0.2612
     47  O         72.7260   54.7940   47.6940 O.2    53  GLY53      -0.2717
     48  N         73.1380   56.9980   47.4030 N.am   54  LEU54      -0.1965
     49  CA        72.1210   57.4460   48.3540 C.3    54  LEU54       0.1728
     50  C         71.3590   58.6540   47.8270 C.2    54  LEU54       0.2616
     51  O         71.9110   59.4910   47.1140 O.2    54  LEU54      -0.2715
     52  CB        72.7590   57.8050   49.6960 C.3    54  LEU54       0.0311
     53  CG        73.3910   56.6640   50.5030 C.3    54  LEU54       0.0022
     54  CD1       74.1730   57.2370   51.6780 C.3    54  LEU54       0.0001
     55  CD2       72.3580   55.6710   50.9810 C.3    54  LEU54       0.0001
     56  N         70.0900   58.7420   48.2070 N.am   55  GLN55      -0.1963
     57  CA        69.2120   59.8390   47.8080 C.3    55  GLN55       0.1733
     58  C         68.2700   60.1920   48.9570 C.2    55  GLN55       0.2617
     59  O         68.3340   59.5910   50.0300 O.2    55  GLN55      -0.2715
     60  CB        68.3950   59.4280   46.5800 C.3    55  GLN55       0.0408
     61  CG        67.3720   58.3430   46.8610 C.3    55  GLN55       0.0908
     62  CD        66.5540   57.9630   45.6460 C.2    55  GLN55       0.2608
     63  OE1       67.0890   57.8200   44.5550 O.2    55  GLN55      -0.2717
     64  NE2       65.2530   57.7900   45.8380 N.am   55  GLN55      -0.0878
     65  N         67.3750   61.1450   48.7140 N.am   56  SER56      -0.1936
     66  CA        66.3940   61.5850   49.7040 C.3    56  SER56       0.2055
     67  C         67.0820   61.9440   51.0140 C.2    56  SER56       0.2643
     68  O         66.7080   61.4770   52.0920 O.2    56  SER56      -0.2714
     69  CB        65.3110   60.5280   49.8920 C.3    56  SER56       0.2130
     70  OG        64.6320   60.3020   48.6650 O.3    56  SER56      -0.2179
     71  N         68.1090   62.7790   50.8870 N.am   57  TRP57      -0.1959
     72  CA        68.8260   63.3220   52.0290 C.3    57  TRP57       0.1771
     73  C         67.8920   64.2280   52.8340 C.2    57  TRP57       0.2619
     74  O         67.2330   65.1110   52.2730 O.2    57  TRP57      -0.2715
     75  CB        70.0580   64.0930   51.5430 C.3    57  TRP57       0.0590
     76  CG        71.0850   63.1910   50.9450 C.ar   57  TRP57       0.0006
     77  CD1       71.1610   62.7710   49.6460 C.ar   57  TRP57       0.0946
     78  CD2       72.1620   62.5540   51.6350 C.ar   57  TRP57       0.0152
     79  NE1       72.2290   61.9210   49.4860 N.ar   57  TRP57      -0.2442
     80  CE2       72.8650   61.7750   50.6910 C.ar   57  TRP57       0.0810
     81  CE3       72.6150   62.5700   52.9630 C.ar   57  TRP57       0.0012
     82  CZ2       73.9880   61.0270   51.0300 C.ar   57  TRP57       0.0191
     83  CZ3       73.7290   61.8260   53.2970 C.ar   57  TRP57       0.0001
     84  CH2       74.4060   61.0660   52.3350 C.ar   57  TRP57       0.0015
     85  N         67.8160   63.9790   54.1400 N.am   58  LYS58      -0.1977
     86  CA        66.9570   64.7390   55.0470 C.3    58  LYS58       0.1596
     87  C         67.7770   65.7190   55.8760 C.2    58  LYS58       0.2287
     88  O         68.9540   65.4910   56.1150 O.2    58  LYS58      -0.2864
     89  CB        66.2080   63.7930   55.9890 C.3    58  LYS58       0.0298
     90  CG        65.4320   62.6820   55.2920 C.3    58  LYS58       0.0038
     91  CD        64.3340   63.2320   54.3850 C.3    58  LYS58       0.0206
     92  CE        63.4310   62.1170   53.8590 C.3    58  LYS58       0.1093
     93  NZ        62.0490   62.5960   53.5830 N.3    58  LYS58      -0.1314
     94  N         70.8830   64.9080   58.3290 N.3    61  ASP61      -0.1239
     95  CA        71.6560   63.7400   57.9020 C.3    61  ASP61       0.1674
     96  C         73.1170   64.1430   57.8260 C.2    61  ASP61       0.2266
     97  O         73.4460   65.1980   57.2830 O.2    61  ASP61      -0.2867
     98  CB        71.2410   63.2420   56.5130 C.3    61  ASP61       0.1410
     99  CG        70.0050   62.3640   56.5260 C.2    61  ASP61       0.3668
    100  OD1       69.4290   62.0760   57.6070 O.co2  61  ASP61      -0.2456
    101  OD2       69.5330   61.9200   55.4600 O.co2  61  ASP61      -0.2456
    102  N         75.9100   58.3860   57.2640 N.3    66  GLU66      -0.1245
    103  CA        75.1300   57.6250   56.2840 C.3    66  GLU66       0.1567
    104  C         76.0340   56.7000   55.4550 C.2    66  GLU66       0.2260
    105  O         75.6550   55.5750   55.1530 O.2    66  GLU66      -0.2867
    106  CB        74.3250   58.5540   55.3720 C.3    66  GLU66       0.0388
    107  CG        73.2960   59.4130   56.0940 C.3    66  GLU66       0.1160
    108  CD        72.2120   58.5980   56.7710 C.2    66  GLU66       0.3649
    109  OE1       71.4580   57.8910   56.0640 O.co2  66  GLU66      -0.2457
    110  OE2       72.1080   58.6820   58.0100 O.co2  66  GLU66      -0.2457
    111  N         75.2350   52.5450   55.5430 N.3    70  TRP70      -0.1227
    112  CA        74.7920   51.8240   54.3460 C.3    70  TRP70       0.1737
    113  C         75.9070   51.0240   53.6670 C.2    70  TRP70       0.2595
    114  O         75.6460   49.9800   53.0680 O.2    70  TRP70      -0.2718
    115  CB        74.1610   52.8010   53.3460 C.3    70  TRP70       0.0564
    116  CG        72.8680   53.3940   53.8370 C.ar   70  TRP70       0.0003
    117  CD1       72.6800   54.6470   54.3580 C.ar   70  TRP70       0.0946
    118  CD2       71.5860   52.7580   53.8620 C.ar   70  TRP70       0.0152
    119  NE1       71.3610   54.8260   54.7020 N.ar   70  TRP70      -0.2442
    120  CE2       70.6650   53.6840   54.4070 C.ar   70  TRP70       0.0810
    121  CE3       71.1160   51.4910   53.4830 C.ar   70  TRP70       0.0012
    122  CZ2       69.3110   53.3860   54.5760 C.ar   70  TRP70       0.0191
    123  CZ3       69.7730   51.1970   53.6570 C.ar   70  TRP70       0.0001
    124  CH2       68.8860   52.1410   54.2010 C.ar   70  TRP70       0.0015
    125  N         77.1380   51.5170   53.7640 N.am   71  PHE71      -0.1976
    126  CA        78.2820   50.9300   53.0620 C.3    71  PHE71       0.1639
    127  C         79.4670   50.6910   53.9990 C.2    71  PHE71       0.2290
    128  O         80.5620   51.2080   53.7720 O.2    71  PHE71      -0.2864
    129  CB        78.6820   51.8230   51.8910 C.3    71  PHE71       0.0560
    130  CG        77.5050   52.3380   51.1120 C.ar   71  PHE71      -0.0200
    131  CD1       76.6330   51.4520   50.4970 C.ar   71  PHE71      -0.0042
    132  CD2       77.2460   53.6970   51.0290 C.ar   71  PHE71      -0.0042
    133  CE1       75.5230   51.9160   49.7940 C.ar   71  PHE71      -0.0003
    134  CE2       76.1330   54.1650   50.3320 C.ar   71  PHE71      -0.0003
    135  CZ        75.2790   53.2720   49.7170 C.ar   71  PHE71      -0.0000
@<TRIPOS>BOND
     1     4     3    2
     2     3     2    1
     3    16    14   am
     4     2     5    1
     5     2     1    1
     6     5     6    1
     7     5     7    1
     8    14    15    2
     9    14    13    1
    10     8     9    1
    11    40    39    1
    12    40    41    2
    13    13    12    1
    14    43    41    1
    15    23    24    1
    16    23    22    1
    17    24    25    1
    18    39    38    1
    19     9    12    1
    20     9    10    1
    21    41    42    1
    22    11    10    2
    23    38    37    1
    24    22    21    1
    25    21    18    1
    26    20    19    2
    27    37    34    1
    28    19    18    1
    29    19    26   am
    30    17    18    1
    31    63    62    2
    32    33    34    1
    33    33    28   am
    34    34    35    1
    35    26    27    1
    36    27    28    1
    37    27    30    1
    38    28    29    2
    39    36    35    2
    40    62    64   am
    41    62    61    1
    42    45    44    1
    43    45    46    1
    44    30    31    1
    45    30    32    1
    46    60    61    1
    47    60    57    1
    48    51    50    2
    49    46    48   am
    50    46    47    2
    51    48    49    1
    52    57    56    1
    53    57    58    1
    54    50    56   am
    55    50    49    1
    56    49    52    1
    57    70    69    1
    58    65    58   am
    59    65    66    1
    60    58    59    2
    61    79    77   ar
    62    79    80   ar
    63    77    76   ar
    64    52    53    1
    65    66    69    1
    66    66    67    1
    67   135   133   ar
    68   135   134   ar
    69   133   131   ar
    70   134   132   ar
    71   131   130   ar
    72    53    55    1
    73    53    54    1
    74    80    82   ar
    75    80    78   ar
    76    71    67   am
    77    71    72    1
    78    76    75    1
    79    76    78   ar
    80    67    68    2
    81   132   130   ar
    82    82    84   ar
    83   130   129    1
    84    75    72    1
    85    78    81   ar
    86   129   126    1
    87    72    73    1
    88    74    73    2
    89    84    83   ar
    90    73    85   am
    91    81    83   ar
    92   126   125    1
    93   126   127    1
    94   114   113    2
    95   115   116    1
    96   115   112    1
    97   121   123   ar
    98   121   118   ar
    99    93    92    1
   100   123   124   ar
   101   113   125   am
   102   113   112    1
   103   128   127    2
   104   116   118   ar
   105   116   117   ar
   106    92    91    1
   107   118   120   ar
   108    85    86    1
   109   124   122   ar
   110   112   111    1
   111   117   119   ar
   112    91    90    1
   113   120   122   ar
   114   120   119   ar
   115    86    87    1
   116    86    89    1
   117   105   104    2
   118    90    89    1
   119   106   107    1
   120   106   103    1
   121   104   103    1
   122   101    99   ar
   123    87    88    2
   124   109   108   ar
   125   107   108    1
   126   103   102    1
   127    98    99    1
   128    98    95    1
   129    99   100   ar
   130   108   110   ar
   131    97    96    2
   132    96    95    1
   133    95    94    1
