@<TRIPOS>MOLECULE
tmp/1twbB00.pdb
 179 173 0 0 0
SMALL
GASTEIGER

@<TRIPOS>ATOM
      1  N          9.3110   33.8850   67.7780 N.3    24  TYR24      -0.1241
      2  CA         8.3560   34.9880   67.7930 C.3    24  TYR24       0.1605
      3  C          8.3360   35.6340   66.4100 C.2    24  TYR24       0.2264
      4  O          9.3860   35.9090   65.8210 O.2    24  TYR24      -0.2867
      5  CB         8.7620   36.0330   68.8400 C.3    24  TYR24       0.0534
      6  CG         8.1170   35.8650   70.2050 C.ar   24  TYR24      -0.0201
      7  CD1        7.6450   34.6250   70.6380 C.ar   24  TYR24      -0.0009
      8  CD2        8.0160   36.9480   71.0780 C.ar   24  TYR24      -0.0009
      9  CE1        7.0900   34.4680   71.9050 C.ar   24  TYR24       0.0417
     10  CE2        7.4650   36.8040   72.3470 C.ar   24  TYR24       0.0417
     11  CZ         7.0060   35.5680   72.7560 C.ar   24  TYR24       0.1957
     12  OH         6.4790   35.4320   74.0230 O.3    24  TYR24      -0.2866
     13  N         -7.4540   42.3160   68.8030 N.3    39  GLU39      -0.1231
     14  CA        -6.8010   42.5400   70.0860 C.3    39  GLU39       0.1699
     15  C         -5.2990   42.2810   70.0150 C.2    39  GLU39       0.2592
     16  O         -4.5650   42.5540   70.9660 O.2    39  GLU39      -0.2718
     17  CB        -7.4340   41.6750   71.1890 C.3    39  GLU39       0.0402
     18  CG        -7.6130   40.1930   70.8680 C.3    39  GLU39       0.1161
     19  CD        -8.9210   39.8940   70.1450 C.2    39  GLU39       0.3649
     20  OE1       -9.3050   38.7070   70.0820 O.co2  39  GLU39      -0.2457
     21  OE2       -9.5630   40.8400   69.6380 O.co2  39  GLU39      -0.2457
     22  N         -4.8450   41.7620   68.8790 N.am   40  CYS40      -0.1970
     23  CA        -3.4330   41.4740   68.6710 C.3    40  CYS40       0.1712
     24  C         -2.6970   42.6860   68.1280 C.2    40  CYS40       0.2296
     25  O         -1.4850   42.8280   68.3140 O.2    40  CYS40      -0.2864
     26  CB        -3.2680   40.3160   67.6870 C.3    40  CYS40       0.0983
     27  SG        -3.6660   38.6920   68.3950 S.3    40  CYS40      -0.0798
     28  N         -1.3090   46.3530   67.7230 N.3    42  LYS42      -0.1245
     29  CA        -0.8200   47.3980   68.6060 C.3    42  LYS42       0.1561
     30  C          0.0900   48.3040   67.7870 C.2    42  LYS42       0.2260
     31  O          1.1620   47.8860   67.3530 O.2    42  LYS42      -0.2867
     32  CB        -0.0440   46.7760   69.7700 C.3    42  LYS42       0.0271
     33  CG        -0.8000   45.6510   70.4700 C.3    42  LYS42       0.0035
     34  CD         0.0500   44.9460   71.5190 C.3    42  LYS42       0.0206
     35  CE        -0.6400   43.6870   72.0250 C.3    42  LYS42       0.1093
     36  NZ        -2.0220   43.9720   72.4970 N.3    42  LYS42      -0.1314
     37  N          1.8610   43.2430   65.0760 N.3    46  ILE46      -0.1231
     38  CA         1.4230   42.0600   65.8080 C.3    46  ILE46       0.1692
     39  C          2.6380   41.1790   66.1380 C.2    46  ILE46       0.2592
     40  O          3.5550   41.0580   65.3300 O.2    46  ILE46      -0.2718
     41  CB         0.4700   41.2370   64.9220 C.3    46  ILE46       0.0266
     42  CG1       -0.6790   42.1290   64.4420 C.3    46  ILE46       0.0019
     43  CG2       -0.0370   40.0170   65.6740 C.3    46  ILE46       0.0020
     44  CD1       -1.3590   41.6280   63.1990 C.3    46  ILE46       0.0001
     45  N          2.6520   40.5810   67.3240 N.am   47  VAL47      -0.1966
     46  CA         3.7470   39.6870   67.7090 C.3    47  VAL47       0.1727
     47  C          3.1250   38.3340   68.0400 C.2    47  VAL47       0.2616
     48  O          2.2680   38.2320   68.9210 O.2    47  VAL47      -0.2715
     49  CB         4.5240   40.2040   68.9370 C.3    47  VAL47       0.0290
     50  CG1        5.5790   39.1850   69.3450 C.3    47  VAL47       0.0023
     51  CG2        5.1870   41.5360   68.6150 C.3    47  VAL47       0.0023
     52  N          3.5580   37.2940   67.3350 N.am   48  LEU48      -0.1963
     53  CA         2.9980   35.9680   67.5360 C.3    48  LEU48       0.1728
     54  C          4.0050   34.9160   67.9700 C.2    48  LEU48       0.2616
     55  O          5.1470   34.8990   67.5060 O.2    48  LEU48      -0.2715
     56  CB         2.3060   35.5200   66.2450 C.3    48  LEU48       0.0311
     57  CG         1.1730   36.4500   65.7770 C.3    48  LEU48       0.0022
     58  CD1        0.8320   36.2020   64.3180 C.3    48  LEU48       0.0001
     59  CD2       -0.0380   36.2360   66.6570 C.3    48  LEU48       0.0001
     60  N          3.5650   34.0380   68.8680 N.am   49  ASN49      -0.1972
     61  CA         4.3980   32.9490   69.3650 C.3    49  ASN49       0.1688
     62  C          4.1150   31.7600   68.4430 C.2    49  ASN49       0.2292
     63  O          3.0350   31.1740   68.4910 O.2    49  ASN49      -0.2864
     64  CB         4.0090   32.6300   70.8180 C.3    49  ASN49       0.1181
     65  CG         4.8110   31.4770   71.4180 C.2    49  ASN49       0.2629
     66  OD1        4.8210   31.2940   72.6360 O.2    49  ASN49      -0.2716
     67  ND2        5.4620   30.6870   70.5730 N.am   49  ASN49      -0.0877
     68  N          5.7550   28.8020   68.3810 N.3    51  SER51      -0.1217
     69  CA         6.2430   27.5030   68.8340 C.3    51  SER51       0.1889
     70  C          5.1630   26.4560   68.5670 C.2    51  SER51       0.2288
     71  O          3.9830   26.7910   68.4220 O.2    51  SER51      -0.2866
     72  CB         6.5710   27.5350   70.3320 C.3    51  SER51       0.2089
     73  OG         5.4060   27.7730   71.1050 O.3    51  SER51      -0.2183
     74  N          4.1570   24.5160   70.6010 N.3    53  SER53      -0.1202
     75  CA         3.3950   24.4610   71.8440 C.3    53  SER53       0.2020
     76  C          2.2720   25.5040   71.9090 C.2    53  SER53       0.2619
     77  O          1.1950   25.2450   72.4440 O.2    53  SER53      -0.2717
     78  CB         4.3490   24.6560   73.0250 C.3    53  SER53       0.2103
     79  OG         3.6420   24.7540   74.2460 O.3    53  SER53      -0.2182
     80  N          2.5300   26.6820   71.3590 N.am   54  ALA54      -0.1965
     81  CA         1.5610   27.7700   71.3830 C.3    54  ALA54       0.1728
     82  C          0.6790   27.8410   70.1360 C.2    54  ALA54       0.2617
     83  O         -0.1340   28.7560   69.9900 O.2    54  ALA54      -0.2715
     84  CB         2.3010   29.1010   71.5890 C.3    54  ALA54       0.0334
     85  N          0.8400   26.8760   69.2380 N.am   55  THR55      -0.1937
     86  CA         0.0610   26.8550   68.0050 C.3    55  THR55       0.2028
     87  C         -0.3720   25.4410   67.6550 C.2    55  THR55       0.2643
     88  O          0.0450   24.4830   68.2920 O.2    55  THR55      -0.2714
     89  CB         0.8720   27.3780   66.8080 C.3    55  THR55       0.1808
     90  OG1        1.9710   26.4900   66.5590 O.3    55  THR55      -0.2208
     91  CG2        1.3970   28.7820   67.0820 C.3    55  THR55       0.0379
     92  N         -1.2080   25.3370   66.6310 N.am   56  GLY56      -0.1939
     93  CA        -1.6840   24.0480   66.1660 C.3    56  GLY56       0.2014
     94  C         -1.7220   24.0470   64.6490 C.2    56  GLY56       0.2638
     95  O         -2.1040   25.0430   64.0400 O.2    56  GLY56      -0.2714
     96  N         -1.3100   22.9460   64.0320 N.am   57  ASN57      -0.1972
     97  CA        -1.3260   22.8260   62.5750 C.3    57  ASN57       0.1688
     98  C         -0.6140   23.9710   61.8550 C.2    57  ASN57       0.2292
     99  O         -1.0800   24.4590   60.8200 O.2    57  ASN57      -0.2864
    100  CB        -2.7720   22.7420   62.0850 C.3    57  ASN57       0.1181
    101  CG        -3.5650   21.6650   62.8040 C.2    57  ASN57       0.2629
    102  OD1       -3.3280   20.4690   62.6200 O.2    57  ASN57      -0.2716
    103  ND2       -4.5020   22.0880   63.6410 N.am   57  ASN57      -0.0877
    104  N         -2.1090   29.0940   60.9840 N.3    67  PHE67      -0.1227
    105  CA        -2.1080   28.2170   62.1250 C.3    67  PHE67       0.1736
    106  C         -3.2650   28.5340   63.0480 C.2    67  PHE67       0.2595
    107  O         -3.9630   29.5390   62.8790 O.2    67  PHE67      -0.2718
    108  CB        -0.7900   28.3840   62.8800 C.3    67  PHE67       0.0547
    109  CG        -0.5580   29.7850   63.3920 C.ar   67  PHE67      -0.0202
    110  CD1       -0.9610   30.1480   64.6720 C.ar   67  PHE67      -0.0042
    111  CD2        0.0550   30.7430   62.5890 C.ar   67  PHE67      -0.0042
    112  CE1       -0.7570   31.4420   65.1490 C.ar   67  PHE67      -0.0003
    113  CE2        0.2640   32.0410   63.0550 C.ar   67  PHE67      -0.0003
    114  CZ        -0.1430   32.3890   64.3370 C.ar   67  PHE67      -0.0000
    115  N         -3.4730   27.6560   64.0170 N.am   68  ASN68      -0.1960
    116  CA        -4.5060   27.8720   65.0070 C.3    68  ASN68       0.1819
    117  C         -3.7610   28.2410   66.2780 C.2    68  ASN68       0.2621
    118  O         -2.6460   27.7620   66.5180 O.2    68  ASN68      -0.2715
    119  CB        -5.3330   26.6060   65.2190 C.3    68  ASN68       0.1195
    120  CG        -6.1460   26.2390   64.0030 C.2    68  ASN68       0.2630
    121  OD1       -6.8770   27.0700   63.4600 O.2    68  ASN68      -0.2716
    122  ND2       -6.0280   24.9900   63.5620 N.am   68  ASN68      -0.0877
    123  N         -4.3650   29.1150   67.0740 N.am   69  ALA69      -0.1963
    124  CA        -3.7770   29.5630   68.3290 C.3    69  ALA69       0.1728
    125  C         -4.9140   29.8600   69.2990 C.2    69  ALA69       0.2616
    126  O         -6.0780   29.8800   68.9090 O.2    69  ALA69      -0.2715
    127  CB        -2.9420   30.8180   68.0960 C.3    69  ALA69       0.0334
    128  N         -4.5820   30.0830   70.5630 N.am   70  ARG70      -0.1963
    129  CA        -5.6090   30.3830   71.5510 C.3    70  ARG70       0.1729
    130  C         -5.4370   31.7890   72.0940 C.2    70  ARG70       0.2616
    131  O         -4.3180   32.2880   72.2320 O.2    70  ARG70      -0.2715
    132  CB        -5.5740   29.3780   72.7100 C.3    70  ARG70       0.0348
    133  CG        -6.1080   28.0020   72.3540 C.3    70  ARG70       0.0492
    134  CD        -6.4170   27.1750   73.5950 C.3    70  ARG70       0.2205
    135  NE        -6.8780   25.8360   73.2350 N.pl3  70  ARG70      -0.0865
    136  CZ        -8.0370   25.5700   72.6370 C.cat  70  ARG70       0.5346
    137  NH1       -8.8760   26.5510   72.3310 N.pl3  70  ARG70       0.1354
    138  NH2       -8.3460   24.3200   72.3180 N.pl3  70  ARG70       0.1354
    139  N         -6.5650   32.4240   72.3860 N.am   71  PHE71      -0.1960
    140  CA        -6.5810   33.7710   72.9280 C.3    71  PHE71       0.1771
    141  C         -7.6050   33.7550   74.0480 C.2    71  PHE71       0.2619
    142  O         -8.8080   33.7420   73.7980 O.2    71  PHE71      -0.2715
    143  CB        -6.9730   34.7660   71.8360 C.3    71  PHE71       0.0574
    144  CG        -6.0800   34.7130   70.6290 C.ar   71  PHE71      -0.0200
    145  CD1       -6.2800   33.7550   69.6400 C.ar   71  PHE71      -0.0042
    146  CD2       -5.0140   35.5990   70.4980 C.ar   71  PHE71      -0.0042
    147  CE1       -5.4290   33.6790   68.5350 C.ar   71  PHE71      -0.0003
    148  CE2       -4.1580   35.5320   69.4000 C.ar   71  PHE71      -0.0003
    149  CZ        -4.3650   34.5700   68.4160 C.ar   71  PHE71      -0.0000
    150  N         -7.1180   33.7420   75.2850 N.am   72  LYS72      -0.1963
    151  CA        -7.9880   33.6760   76.4530 C.3    72  LYS72       0.1728
    152  C         -8.6970   32.3250   76.4220 C.2    72  LYS72       0.2616
    153  O         -9.8310   32.1950   76.8750 O.2    72  LYS72      -0.2715
    154  CB        -9.0170   34.8130   76.4430 C.3    72  LYS72       0.0311
    155  CG        -8.4110   36.1960   76.5750 C.3    72  LYS72       0.0038
    156  CD        -9.4840   37.2750   76.5820 C.3    72  LYS72       0.0206
    157  CE        -8.8590   38.6630   76.5790 C.3    72  LYS72       0.1093
    158  NZ        -7.9610   38.8560   75.4020 N.3    72  LYS72      -0.1314
    159  N         -8.0160   31.3260   75.8660 N.am   73  GLY73      -0.1955
    160  CA        -8.5780   29.9890   75.7920 C.3    73  GLY73       0.1869
    161  C         -9.4280   29.6850   74.5720 C.2    73  GLY73       0.2309
    162  O         -9.7510   28.5220   74.3150 O.2    73  GLY73      -0.2863
    163  N         -9.9190   29.1840   70.7110 N.3    75  SER75      -0.1217
    164  CA        -9.1330   28.8950   69.5200 C.3    75  SER75       0.1889
    165  C         -9.5970   29.7200   68.3230 C.2    75  SER75       0.2288
    166  O        -10.7900   29.9850   68.1590 O.2    75  SER75      -0.2866
    167  CB        -9.2130   27.4020   69.1800 C.3    75  SER75       0.2089
    168  OG        -8.3830   27.0780   68.0710 O.3    75  SER75      -0.2183
    169  N         12.4210   34.6940   71.5700 N.3    91  ARG91      -0.1245
    170  CA        11.8780   35.4250   72.7120 C.3    91  ARG91       0.1563
    171  C         12.9520   35.5420   73.8010 C.2    91  ARG91       0.2260
    172  O         13.0550   36.5630   74.4820 O.2    91  ARG91      -0.2867
    173  CB        10.6750   34.6860   73.2980 C.3    91  ARG91       0.0307
    174  CG        10.3330   35.1220   74.7220 C.3    91  ARG91       0.0489
    175  CD         9.8520   33.9490   75.5580 C.3    91  ARG91       0.2205
    176  NE         8.4760   33.5750   75.2500 N.pl3  91  ARG91      -0.0865
    177  CZ         7.8630   32.5000   75.7370 C.cat  91  ARG91       0.5346
    178  NH1        8.5090   31.6790   76.5560 N.pl3  91  ARG91       0.1354
    179  NH2        6.5950   32.2560   75.4230 N.pl3  91  ARG91       0.1354
@<TRIPOS>BOND
     1    99    98    2
     2   104   105    1
     3    98    97    1
     4   100    97    1
     5   100   101    1
     6   105   108    1
     7   105   106    1
     8    97    96    1
     9   111   113   ar
    10   111   109   ar
    11   102   101    2
    12   101   103   am
    13   107   106    2
    14   108   109    1
    15   106   115   am
    16   113   114   ar
    17    44    42    1
    18   109   110   ar
    19   121   120    2
    20   122   120   am
    21   120   119    1
    22   115   116    1
    23    96    94   am
    24    95    94    2
    25    58    57    1
    26   114   112   ar
    27    42    41    1
    28    94    93    1
    29   110   112   ar
    30    41    43    1
    31    41    38    1
    32   116   119    1
    33   116   117    1
    34    37    38    1
    35    40    39    2
    36    57    56    1
    37    57    59    1
    38    38    39    1
    39     4     3    2
    40    39    45   am
    41    93    92    1
    42    56    53    1
    43   117   118    2
    44   117   123   am
    45     3     2    1
    46    90    89    1
    47    92    87   am
    48    89    91    1
    49    89    86    1
    50   123   124    1
    51    45    46    1
    52    52    53    1
    53    52    47   am
    54    31    30    2
    55    55    54    2
    56    53    54    1
    57    87    86    1
    58    87    88    2
    59    26    27    1
    60    26    23    1
    61    46    47    1
    62    46    49    1
    63    28    29    1
    64     1     2    1
    65    30    29    1
    66     2     5    1
    67    54    60   am
    68    86    85    1
    69    47    48    2
    70   168   167    1
    71   127   124    1
    72    24    25    2
    73    24    23    1
    74   166   165    2
    75   165   164    1
    76   124   125    1
    77    68    69    1
    78   149   147   ar
    79   149   148   ar
    80    71    70    2
    81    62    63    2
    82    62    61    1
    83   147   145   ar
    84    70    69    1
    85    29    32    1
    86    51    49    1
    87    23    22    1
    88    13    14    1
    89    69    72    1
    90     5     6    1
    91    60    61    1
    92    22    15   am
    93   126   125    2
    94    49    50    1
    95   167   164    1
    96    85    82   am
    97   125   128   am
    98    61    64    1
    99   148   146   ar
   100   164   163    1
   101    21    19   ar
   102   145   144   ar
   103    32    33    1
   104    83    82    2
   105    15    14    1
   106    15    16    2
   107    20    19   ar
   108    14    17    1
   109    82    81    1
   110    19    18    1
   111     6     7   ar
   112     6     8   ar
   113    72    73    1
   114    33    34    1
   115   146   144   ar
   116   128   129    1
   117    67    65   am
   118    74    75    1
   119   144   143    1
   120     7     9   ar
   121    64    65    1
   122    18    17    1
   123     8    10   ar
   124    80    81    1
   125    80    76   am
   126    81    84    1
   127    65    66    2
   128    34    35    1
   129   129   130    1
   130   129   132    1
   131   169   170    1
   132   143   140    1
   133    75    76    1
   134    75    78    1
   135     9    11   ar
   136    76    77    2
   137    35    36    1
   138   130   131    2
   139   130   139   am
   140   138   136    1
   141   137   136    1
   142    10    11   ar
   143   133   132    1
   144   133   134    1
   145   139   140    1
   146   136   135    2
   147   170   173    1
   148   170   171    1
   149    11    12    1
   150   140   141    1
   151    78    79    1
   152   135   134    1
   153   173   174    1
   154   142   141    2
   155   171   172    2
   156   141   150   am
   157   162   161    2
   158   161   160    1
   159   174   175    1
   160   176   175    1
   161   176   177    2
   162   150   151    1
   163   158   157    1
   164   179   177    1
   165   177   178    1
   166   160   159    1
   167   159   152   am
   168   152   151    1
   169   152   153    2
   170   154   151    1
   171   154   155    1
   172   155   156    1
   173   157   156    1
