@<TRIPOS>MOLECULE
tmp/1twiB01.pdb
 159 151 0 0 0
SMALL
GASTEIGER

@<TRIPOS>ATOM
      1  N         23.9300   35.2540   39.1110 N.3    67  ALA67      -0.1245
      2  CA        23.3870   33.9100   39.1990 C.3    67  ALA67       0.1562
      3  C         24.4100   32.9520   39.8320 C.2    67  ALA67       0.2260
      4  O         25.3840   32.4960   39.2050 O.2    67  ALA67      -0.2867
      5  CB        22.9890   33.4040   37.8030 C.3    67  ALA67       0.0290
      6  N         24.3250   29.9290   40.4840 N.3    69  LYS69      -0.1245
      7  CA        24.4510   28.5970   39.9060 C.3    69  LYS69       0.1561
      8  C         25.6730   28.4980   38.9910 C.2    69  LYS69       0.2260
      9  O         26.2550   27.4190   38.8030 O.2    69  LYS69      -0.2867
     10  CB        23.1430   28.1970   39.1810 C.3    69  LYS69       0.0271
     11  CG        22.8380   29.1070   37.9830 C.3    69  LYS69       0.0035
     12  CD        21.3160   29.3100   37.8480 C.3    69  LYS69       0.0206
     13  CE        20.9590   30.6310   38.4810 C.3    69  LYS69       0.1093
     14  NZ        19.5910   30.7860   38.7750 N.3    69  LYS69      -0.1314
     15  N         21.2760   36.1500   42.5020 N.3    88  ASP88      -0.1239
     16  CA        20.1130   35.3930   42.0680 C.3    88  ASP88       0.1674
     17  C         20.4550   33.9890   42.6500 C.2    88  ASP88       0.2266
     18  O         21.3790   33.3120   42.1690 O.2    88  ASP88      -0.2867
     19  CB        20.0180   35.3640   40.5360 C.3    88  ASP88       0.1410
     20  CG        19.5280   34.0180   40.0060 C.2    88  ASP88       0.3668
     21  OD1       18.8250   33.2830   40.7510 O.co2  88  ASP88      -0.2456
     22  OD2       19.8270   33.6720   38.8370 O.co2  88  ASP88      -0.2456
     23  N         19.1610   29.9820   43.8990 N.3    90  VAL90      -0.1245
     24  CA        18.1010   29.0050   43.5600 C.3    90  VAL90       0.1561
     25  C         17.9480   27.8830   44.5590 C.2    90  VAL90       0.2260
     26  O         17.2020   26.8940   44.3400 O.2    90  VAL90      -0.2867
     27  CB        18.3300   28.4130   42.1240 C.3    90  VAL90       0.0252
     28  CG1       18.2700   29.5360   41.0640 C.3    90  VAL90       0.0019
     29  CG2       19.6690   27.6880   42.0440 C.3    90  VAL90       0.0019
     30  N         15.1600   32.2710   43.0540 N.3   111  ASN111     -0.1240
     31  CA        14.4620   31.5680   41.9640 C.3   111  ASN111      0.1653
     32  C         14.3350   30.1000   42.2810 C.2   111  ASN111      0.2266
     33  O         15.0210   29.5930   43.1800 O.2   111  ASN111     -0.2867
     34  CB        15.2510   31.7090   40.6520 C.3   111  ASN111      0.1155
     35  CG        15.0220   33.0520   40.0070 C.2   111  ASN111      0.2627
     36  OD1       13.8840   33.3900   39.7130 O.2   111  ASN111     -0.2716
     37  ND2       16.0860   33.8350   39.8120 N.am  111  ASN111     -0.0877
     38  N          7.4740   34.7860   38.5200 N.3   158  ARG158     -0.1245
     39  CA         8.1600   34.4200   37.2880 C.3   158  ARG158      0.1563
     40  C          7.0360   34.0870   36.2800 C.2   158  ARG158      0.2260
     41  O          6.2170   33.1790   36.4920 O.2   158  ARG158     -0.2867
     42  CB         9.0740   33.1960   37.4790 C.3   158  ARG158      0.0307
     43  CG         9.7250   32.7430   36.1330 C.3   158  ARG158      0.0489
     44  CD        10.7320   31.5880   36.3600 C.3   158  ARG158      0.2205
     45  NE        11.4990   31.3300   35.1330 N.pl3 158  ARG158     -0.0865
     46  CZ        12.5690   30.5360   35.0330 C.cat 158  ARG158      0.5346
     47  NH1       13.0350   29.8950   36.1050 N.pl3 158  ARG158      0.1354
     48  NH2       13.1510   30.3600   33.8530 N.pl3 158  ARG158      0.1354
     49  N          9.1140   25.6730   34.3600 N.3   180  PHE180     -0.1241
     50  CA         9.1830   27.0040   34.9820 C.3   180  PHE180      0.1605
     51  C          8.1170   28.0010   34.6400 C.2   180  PHE180      0.2264
     52  O          7.5700   27.9620   33.5360 O.2   180  PHE180     -0.2867
     53  CB        10.4980   27.7060   34.5750 C.3   180  PHE180      0.0534
     54  CG        11.7360   26.8820   34.7980 C.ar  180  PHE180     -0.0203
     55  CD1       12.2050   26.6490   36.1060 C.ar  180  PHE180     -0.0042
     56  CD2       12.4420   26.3410   33.7080 C.ar  180  PHE180     -0.0042
     57  CE1       13.3810   25.8860   36.3360 C.ar  180  PHE180     -0.0003
     58  CE2       13.6130   25.5720   33.9170 C.ar  180  PHE180     -0.0003
     59  CZ        14.0850   25.3460   35.2370 C.ar  180  PHE180     -0.0000
     60  N          9.1430   38.6060   37.0120 N.3   208  HIS208     -0.1241
     61  CA        10.4430   38.0530   36.6100 C.3   208  HIS208      0.1621
     62  C         10.2280   37.1720   35.3560 C.2   208  HIS208      0.2264
     63  O          9.1170   36.6940   35.1260 O.2   208  HIS208     -0.2867
     64  CB        10.9730   37.2040   37.7830 C.3   208  HIS208      0.0745
     65  CG        12.1260   36.3310   37.4150 C.ar  208  HIS208      0.0817
     66  ND1       11.9870   34.9850   37.1410 N.ar  208  HIS208     -0.2268
     67  CD2       13.4300   36.6260   37.2210 C.ar  208  HIS208      0.1154
     68  CE1       13.1650   34.4940   36.7990 C.ar  208  HIS208      0.1986
     69  NE2       14.0550   35.4690   36.8380 N.ar  208  HIS208     -0.2212
     70  N         12.8880   34.5830   32.5720 N.3   210  HIS210     -0.1241
     71  CA        14.2330   34.1390   32.2200 C.3   210  HIS210      0.1621
     72  C         14.0070   33.1970   31.0690 C.2   210  HIS210      0.2264
     73  O         13.3700   32.1650   31.2310 O.2   210  HIS210     -0.2867
     74  CB        14.9050   33.3950   33.3730 C.3   210  HIS210      0.0745
     75  CG        16.2070   32.7710   32.9790 C.ar  210  HIS210      0.0817
     76  ND1       17.3540   33.5050   32.7990 N.ar  210  HIS210     -0.2268
     77  CD2       16.5240   31.4900   32.6590 C.ar  210  HIS210      0.1154
     78  CE1       18.3210   32.7120   32.3810 C.ar  210  HIS210      0.1986
     79  NE2       17.8420   31.4800   32.2880 N.ar  210  HIS210     -0.2212
     80  N         19.7570   30.3600   28.0240 N.3   213  SER213     -0.1202
     81  CA        21.1580   30.6380   28.3340 C.3   213  SER213      0.2020
     82  C         21.9720   30.5470   27.0450 C.2   213  SER213      0.2618
     83  O         21.5120   29.9360   26.0480 O.2   213  SER213     -0.2717
     84  CB        21.6310   29.6300   29.4060 C.3   213  SER213      0.2103
     85  OG        22.9390   29.9100   29.8860 O.3   213  SER213     -0.2182
     86  N         23.1550   31.1820   27.0850 N.am  214  GLN214     -0.1979
     87  CA        24.1230   31.2640   25.9870 C.3   214  GLN214      0.1601
     88  C         23.4220   31.7840   24.7200 C.2   214  GLN214      0.2287
     89  O         23.5820   31.2420   23.6240 O.2   214  GLN214     -0.2864
     90  CB        24.8180   29.9030   25.7350 C.3   214  GLN214      0.0394
     91  CG        25.9710   29.8830   24.6390 C.3   214  GLN214      0.0908
     92  CD        27.0220   31.0150   24.7880 C.2   214  GLN214      0.2608
     93  OE1       27.7300   31.3630   23.8090 O.2   214  GLN214     -0.2717
     94  NE2       27.1420   31.5750   25.9910 N.am  214  GLN214     -0.0878
     95  N         18.7100   36.1780   33.0710 N.3   249  GLY249     -0.1210
     96  CA        20.0890   36.2200   32.5920 C.3   249  GLY249      0.1956
     97  C         20.1600   35.6800   31.1700 C.2   249  GLY249      0.2612
     98  O         19.2100   35.8890   30.3960 O.2   249  GLY249     -0.2717
     99  N         21.2480   35.0060   30.8110 N.am  250  GLY250     -0.1942
    100  CA        21.2950   34.4320   29.4830 C.3   250  GLY250      0.2014
    101  C         22.1360   35.0510   28.3930 C.2   250  GLY250      0.2638
    102  O         22.2880   34.4100   27.3520 O.2   250  GLY250     -0.2714
    103  N         22.6950   36.2490   28.5750 N.am  251  LEU251     -0.1977
    104  CA        23.5440   36.8110   27.5050 C.3   251  LEU251      0.1596
    105  C         24.6880   35.8340   27.2850 C.2   251  LEU251      0.2287
    106  O         25.3220   35.3860   28.2480 O.2   251  LEU251     -0.2864
    107  CB        24.1100   38.1870   27.8910 C.3   251  LEU251      0.0297
    108  CG        25.0770   38.7570   26.8290 C.3   251  LEU251      0.0022
    109  CD1       24.2750   39.1250   25.5680 C.3   251  LEU251      0.0001
    110  CD2       25.7900   40.0020   27.3620 C.3   251  LEU251      0.0001
    111  N         19.9310   39.0080   35.8340 N.3   290  GLU290     -0.1231
    112  CA        20.5220   37.8770   36.5670 C.3   290  GLU290      0.1684
    113  C         21.6180   37.1760   35.7480 C.2   290  GLU290      0.2434
    114  O         21.5450   35.9700   35.4920 O.2   290  GLU290     -0.2733
    115  CB        19.4220   36.8460   36.8980 C.3   290  GLU290      0.0402
    116  CG        18.2260   37.3910   37.6810 C.3   290  GLU290      0.1161
    117  CD        17.1100   36.3920   37.8680 C.2   290  GLU290      0.3649
    118  OE1       16.9160   35.5280   36.9700 O.co2 290  GLU290     -0.2457
    119  OE2       16.4110   36.4850   38.9220 O.co2 290  GLU290     -0.2457
    120  N         22.6390   37.9200   35.3110 N.am  291  PRO291     -0.2718
    121  CA        23.6650   37.2570   34.5420 C.3   291  PRO291      0.1535
    122  C         24.4820   36.3120   35.3900 C.2   291  PRO291      0.2599
    123  O         24.7740   36.6190   36.5580 O.2   291  PRO291     -0.2715
    124  CB        24.5520   38.4030   34.0410 C.3   291  PRO291      0.0310
    125  CG        24.4810   39.3600   35.1360 C.3   291  PRO291      0.0237
    126  CD        22.9950   39.3240   35.5700 C.3   291  PRO291      0.0939
    127  N         24.8830   35.1960   34.7860 N.am  292  GLY292     -0.1941
    128  CA        25.7760   34.2400   35.4750 C.3   292  GLY292      0.2014
    129  C         27.0220   34.0640   34.6200 C.2   292  GLY292      0.2639
    130  O         28.1510   34.5120   34.9220 O.2   292  GLY292     -0.2714
    131  N         26.8070   33.3820   33.5040 N.am  293  ARG293     -0.1963
    132  CA        27.8650   33.1020   32.5640 C.3   293  ARG293      0.1729
    133  C         28.5710   34.3900   32.1600 C.2   293  ARG293      0.2616
    134  O         29.8020   34.4570   32.1550 O.2   293  ARG293     -0.2715
    135  CB        27.2550   32.4330   31.3090 C.3   293  ARG293      0.0348
    136  CG        28.2430   31.6680   30.4390 C.3   293  ARG293      0.0492
    137  CD        27.6140   31.2690   29.1160 C.3   293  ARG293      0.2205
    138  NE        26.4130   30.4480   29.3020 N.pl3 293  ARG293     -0.0865
    139  CZ        26.4160   29.1190   29.5050 C.cat 293  ARG293      0.5346
    140  NH1       27.5590   28.4110   29.5390 N.pl3 293  ARG293      0.1354
    141  NH2       25.2620   28.4820   29.7190 N.pl3 293  ARG293      0.1354
    142  N         27.8030   35.4250   31.8310 N.am  294  SER294     -0.1950
    143  CA        28.4730   36.6260   31.3500 C.3   294  SER294      0.1924
    144  C         29.2600   37.4100   32.3810 C.2   294  SER294      0.2314
    145  O         29.9480   38.3560   32.0170 O.2   294  SER294     -0.2863
    146  CB        27.4990   37.5560   30.6110 C.3   294  SER294      0.2116
    147  OG        26.3280   37.7540   31.3650 O.3   294  SER294     -0.2180
    148  N         29.7170   27.3310   35.2550 N.3   387  TYR387     -0.1241
    149  CA        29.3120   25.9200   35.0590 C.3   387  TYR387      0.1605
    150  C         30.5440   25.0200   34.8880 C.2   387  TYR387      0.2264
    151  O         30.5490   24.0600   34.0840 O.2   387  TYR387     -0.2867
    152  CB        28.3310   25.8320   33.8440 C.3   387  TYR387      0.0534
    153  CG        27.1690   26.8450   33.9870 C.ar  387  TYR387     -0.0201
    154  CD1       26.1820   26.6890   34.9950 C.ar  387  TYR387     -0.0009
    155  CD2       27.1360   28.0140   33.2070 C.ar  387  TYR387     -0.0009
    156  CE1       25.1980   27.6770   35.2220 C.ar  387  TYR387      0.0417
    157  CE2       26.1710   29.0100   33.4130 C.ar  387  TYR387      0.0417
    158  CZ        25.2050   28.8250   34.4290 C.ar  387  TYR387      0.1957
    159  OH        24.2650   29.7860   34.6110 O.3   387  TYR387     -0.2866
@<TRIPOS>BOND
     1    89    88    2
     2    93    92    2
     3    91    92    1
     4    91    90    1
     5    88    87    1
     6    92    94   am
     7   109   108    1
     8    90    87    1
     9    87    86    1
    10    83    82    2
    11   108   110    1
    12   108   107    1
    13    82    86   am
    14    82    81    1
    15   105   104    1
    16   105   106    2
    17   102   101    2
    18   104   107    1
    19   104   103    1
    20    80    81    1
    21    81    84    1
    22   101   103   am
    23   101   100    1
    24   137   138    1
    25   137   136    1
    26   138   139    2
    27    84    85    1
    28   100    99    1
    29   139   140    1
    30   139   141    1
    31    98    97    2
    32   136   135    1
    33   146   143    1
    34   146   147    1
    35    99    97   am
    36    72    73    2
    37    72    71    1
    38    97    96    1
    39   135   132    1
    40   143   142    1
    41   143   144    1
    42   142   133   am
    43   145   144    2
    44   134   133    2
    45   133   132    1
    46    71    70    1
    47    71    74    1
    48    79    78   ar
    49    79    77   ar
    50    78    76   ar
    51   132   131    1
    52    96    95    1
    53    77    75   ar
    54    76    75   ar
    55    75    74    1
    56   155   157   ar
    57   155   153   ar
    58   157   158   ar
    59   131   129   am
    60    52    51    2
    61    56    58   ar
    62    56    54   ar
    63   152   153    1
    64   152   149    1
    65    48    46    1
    66    58    59   ar
    67   153   154   ar
    68   124   121    1
    69   124   125    1
    70   151   150    2
    71    49    50    1
    72   158   159    1
    73   158   156   ar
    74   121   120    1
    75   121   122    1
    76    53    54    1
    77    53    50    1
    78   129   130    2
    79   129   128    1
    80    51    50    1
    81   127   122   am
    82   127   128    1
    83    54    55   ar
    84   150   149    1
    85   154   156   ar
    86    46    45    2
    87    46    47    1
    88   149   148    1
    89    63    62    2
    90    45    44    1
    91   125   126    1
    92    59    57   ar
    93   120   126    1
    94   120   113   am
    95    62    61    1
    96   122   123    2
    97   114   113    2
    98   113   112    1
    99   111   112    1
   100    55    57   ar
   101    43    44    1
   102    43    42    1
   103    40    41    2
   104    40    39    1
   105   112   115    1
   106    61    60    1
   107    61    64    1
   108    68    69   ar
   109    68    66   ar
   110    69    67   ar
   111   115   116    1
   112   118   117   ar
   113    66    65   ar
   114    67    65   ar
   115    39    42    1
   116    39    38    1
   117    65    64    1
   118   116   117    1
   119     5     2    1
   120    12    11    1
   121    12    13    1
   122   117   119   ar
   123    11    10    1
   124    13    14    1
   125     9     8    2
   126    22    20   ar
   127     8     7    1
   128     1     2    1
   129    10     7    1
   130     2     3    1
   131     4     3    2
   132    36    35    2
   133    37    35   am
   134     7     6    1
   135    20    19    1
   136    20    21   ar
   137    35    34    1
   138    19    16    1
   139    34    31    1
   140    28    27    1
   141    31    32    1
   142    31    30    1
   143    29    27    1
   144    16    15    1
   145    16    17    1
   146    27    24    1
   147    18    17    2
   148    32    33    2
   149    24    23    1
   150    24    25    1
   151    26    25    2
