@<TRIPOS>MOLECULE
tmp/1twiA00.pdb
 92 87 0 0 0
SMALL
GASTEIGER

@<TRIPOS>ATOM
      1  N         33.5680    2.3060   38.8790 N.3    69  LYS69      -0.1245
      2  CA        33.0490    3.6040   38.4120 C.3    69  LYS69       0.1561
      3  C         31.5370    3.6570   38.5480 C.2    69  LYS69       0.2260
      4  O         30.9660    4.7430   38.5930 O.2    69  LYS69      -0.2867
      5  CB        33.4660    3.9060   36.9740 C.3    69  LYS69       0.0271
      6  CG        32.8130    3.0520   35.8780 C.3    69  LYS69       0.0035
      7  CD        33.8830    2.6520   34.8110 C.3    69  LYS69       0.0206
      8  CE        34.5280    1.3050   35.2670 C.3    69  LYS69       0.1093
      9  NZ        35.6700    0.8070   34.5230 N.3    69  LYS69      -0.1314
     10  N         36.6380   -3.8610   26.1260 N.3   210  HIS210     -0.1241
     11  CA        35.4090   -3.3950   26.7190 C.3   210  HIS210      0.1621
     12  C         34.7900   -2.6320   25.5760 C.2   210  HIS210      0.2264
     13  O         35.3960   -1.6740   25.0220 O.2   210  HIS210     -0.2867
     14  CB        35.6620   -2.4460   27.8680 C.3   210  HIS210      0.0745
     15  CG        34.4070   -1.8120   28.3510 C.ar  210  HIS210      0.0817
     16  ND1       33.4610   -2.5170   29.0690 N.ar  210  HIS210     -0.2268
     17  CD2       33.9040   -0.5680   28.1540 C.ar  210  HIS210      0.1154
     18  CE1       32.4240   -1.7310   29.2920 C.ar  210  HIS210      0.1986
     19  NE2       32.6690   -0.5430   28.7430 N.ar  210  HIS210     -0.2212
     20  N         31.3160   -1.2170   25.3060 N.3   212  GLY212     -0.1210
     21  CA        30.2230   -0.2650   25.3640 C.3   212  GLY212      0.1956
     22  C         29.4310   -0.5320   26.6220 C.2   212  GLY212      0.2613
     23  O         29.8730   -1.3350   27.4640 O.2   212  GLY212     -0.2717
     24  N         28.2590    0.0870   26.7510 N.am  213  SER213     -0.1938
     25  CA        27.4840   -0.0460   27.9800 C.3   213  SER213      0.2055
     26  C         25.9850   -0.0360   27.6780 C.2   213  SER213      0.2642
     27  O         25.5520    0.4860   26.6450 O.2   213  SER213     -0.2714
     28  CB        27.8510    1.1090   28.9380 C.3   213  SER213      0.2130
     29  OG        27.3570    0.9330   30.2880 O.3   213  SER213     -0.2179
     30  N         25.2320   -0.6480   28.5840 N.am  214  GLN214     -0.1976
     31  CA        23.7850   -0.8080   28.4830 C.3   214  GLN214      0.1601
     32  C         23.4350   -1.4430   27.1300 C.2   214  GLN214      0.2287
     33  O         22.5870   -0.9370   26.3710 O.2   214  GLN214     -0.2864
     34  CB        23.0790    0.5640   28.7050 C.3   214  GLN214      0.0394
     35  CG        21.5490    0.5340   28.5840 C.3   214  GLN214      0.0908
     36  CD        20.8730   -0.4940   29.5170 C.2   214  GLN214      0.2608
     37  OE1       19.6950   -0.9190   29.2870 O.2   214  GLN214     -0.2717
     38  NE2       21.5740   -0.8750   30.5680 N.am  214  GLN214     -0.0878
     39  N         27.0910   -1.7160   35.9250 N.3   293  ARG293     -0.1245
     40  CA        25.6450   -1.5230   35.9530 C.3   293  ARG293      0.1563
     41  C         24.9260   -2.8210   36.2690 C.2   293  ARG293      0.2260
     42  O         24.0590   -2.8440   37.1260 O.2   293  ARG293     -0.2867
     43  CB        25.1790   -1.0060   34.5900 C.3   293  ARG293      0.0307
     44  CG        23.8050   -0.3240   34.5700 C.3   293  ARG293      0.0489
     45  CD        23.3460   -0.1580   33.0730 C.3   293  ARG293      0.2205
     46  NE        24.3510    0.5750   32.2830 N.pl3 293  ARG293     -0.0865
     47  CZ        24.4230    1.9060   32.2110 C.cat 293  ARG293      0.5346
     48  NH1       23.5450    2.7010   32.8530 N.pl3 293  ARG293      0.1354
     49  NH2       25.4210    2.4420   31.5370 N.pl3 293  ARG293      0.1354
     50  N         21.3910   10.8440   35.4690 N.3   329  ARG329     -0.1245
     51  CA        21.1110   10.1260   34.2000 C.3   329  ARG329      0.1563
     52  C         20.0530   10.7320   33.2890 C.2   329  ARG329      0.2260
     53  O         20.2960   10.9010   32.0970 O.2   329  ARG329     -0.2867
     54  CB        20.7890    8.6310   34.4130 C.3   329  ARG329      0.0307
     55  CG        21.8830    7.7800   35.0250 C.3   329  ARG329      0.0489
     56  CD        21.4600    6.2830   34.8380 C.3   329  ARG329      0.2205
     57  NE        21.6590    5.8570   33.4630 N.pl3 329  ARG329     -0.0865
     58  CZ        20.7420    5.3450   32.6390 C.cat 329  ARG329      0.5346
     59  NH1       19.4790    5.1530   32.9760 N.pl3 329  ARG329      0.1354
     60  NH2       21.1340    4.9980   31.4250 N.pl3 329  ARG329      0.1354
     61  N         21.3850   12.2000   29.7640 N.3   333  TYR333     -0.1241
     62  CA        21.2260   11.3100   28.6290 C.3   333  TYR333      0.1605
     63  C         19.7900   11.1410   28.1760 C.2   333  TYR333      0.2264
     64  O         19.5380   10.3760   27.2540 O.2   333  TYR333     -0.2867
     65  CB        21.7730    9.8970   28.9840 C.3   333  TYR333      0.0534
     66  CG        23.1820    9.8130   29.6010 C.ar  333  TYR333     -0.0201
     67  CD1       24.3400    9.8830   28.8050 C.ar  333  TYR333     -0.0009
     68  CD2       23.3550    9.6550   30.9820 C.ar  333  TYR333     -0.0009
     69  CE1       25.6430    9.8030   29.3790 C.ar  333  TYR333      0.0417
     70  CE2       24.6580    9.5750   31.5680 C.ar  333  TYR333      0.0417
     71  CZ        25.7840    9.6500   30.7550 C.ar  333  TYR333      0.1957
     72  OH        27.0590    9.5500   31.3100 O.3   333  TYR333     -0.2866
     73  N         25.8630    4.6370   38.3930 N.3   387  TYR387     -0.1241
     74  CA        25.9880    5.9710   37.7900 C.3   387  TYR387      0.1605
     75  C         24.9070    6.8300   38.3840 C.2   387  TYR387      0.2264
     76  O         24.2530    7.5890   37.6890 O.2   387  TYR387     -0.2867
     77  CB        25.8370    5.8810   36.2800 C.3   387  TYR387      0.0534
     78  CG        26.7980    4.8210   35.7330 C.ar  387  TYR387     -0.0201
     79  CD1       28.1640    5.0390   35.7300 C.ar  387  TYR387     -0.0009
     80  CD2       26.3280    3.5820   35.3260 C.ar  387  TYR387     -0.0009
     81  CE1       29.0750    4.0150   35.3240 C.ar  387  TYR387      0.0417
     82  CE2       27.1840    2.5510   34.9180 C.ar  387  TYR387      0.0417
     83  CZ        28.5670    2.7680   34.9190 C.ar  387  TYR387      0.1957
     84  OH        29.4120    1.7530   34.5210 O.3   387  TYR387     -0.2866
     85  N         27.9060    9.7540   40.1120 N.3   391  MET391     -0.1245
     86  CA        28.0280   10.9730   39.2930 C.3   391  MET391      0.1570
     87  C         27.3350   12.1340   39.9970 C.2   391  MET391      0.2261
     88  O         27.1960   13.2060   39.4060 O.2   391  MET391     -0.2867
     89  CB        27.4020   10.7670   37.8890 C.3   391  MET391      0.0387
     90  CG        28.0540    9.6020   37.0930 C.3   391  MET391      0.0595
     91  SD        27.5580    9.4020   35.3410 S.3   391  MET391     -0.1393
     92  CE        28.3600   10.7470   34.6000 C.3   391  MET391      0.0692
@<TRIPOS>BOND
     1    13    12    2
     2    20    21    1
     3    21    22    1
     4    12    11    1
     5    10    11    1
     6    33    32    2
     7    22    24   am
     8    22    23    2
     9    27    26    2
    10    11    14    1
    11    24    25    1
    12    32    31    1
    13    64    63    2
    14    26    25    1
    15    26    30   am
    16    14    15    1
    17    25    28    1
    18    17    15   ar
    19    17    19   ar
    20    63    62    1
    21    15    16   ar
    22    31    30    1
    23    31    34    1
    24    35    34    1
    25    35    36    1
    26    62    65    1
    27    62    61    1
    28    19    18   ar
    29    67    69   ar
    30    67    66   ar
    31    28    29    1
    32    65    66    1
    33    16    18   ar
    34    37    36    2
    35    69    71   ar
    36    36    38   am
    37    66    68   ar
    38    71    72    1
    39    71    70   ar
    40    68    70   ar
    41    60    58    1
    42    49    47    1
    43    53    52    2
    44    47    46    2
    45    47    48    1
    46    46    45    1
    47    58    59    1
    48    58    57    2
    49    45    44    1
    50    52    51    1
    51    57    56    1
    52    51    54    1
    53    51    50    1
    54    54    55    1
    55    84    83    1
    56     9     8    1
    57    44    43    1
    58    43    40    1
    59    92    91    1
    60     7     8    1
    61     7     6    1
    62    56    55    1
    63    82    83   ar
    64    82    80   ar
    65    83    81   ar
    66    81    79   ar
    67    80    78   ar
    68    91    90    1
    69    79    78   ar
    70    78    77    1
    71     6     5    1
    72    39    40    1
    73    40    41    1
    74    41    42    2
    75    77    74    1
    76     5     2    1
    77    90    89    1
    78    76    75    2
    79    74    75    1
    80    74    73    1
    81    89    86    1
    82     2     3    1
    83     2     1    1
    84     3     4    2
    85    86    87    1
    86    86    85    1
    87    88    87    2
