@<TRIPOS>MOLECULE
tmp/1twnA00.pdb
 172 162 0 0 0
SMALL
GASTEIGER

@<TRIPOS>ATOM
      1  N          4.2620    4.0770    9.9020 N.3     5  SER5       -0.1217
      2  CA         5.6840    4.1920    9.5990 C.3     5  SER5        0.1889
      3  C          6.5200    3.5580   10.7020 C.2     5  SER5        0.2288
      4  O          7.5560    2.9440   10.4370 O.2     5  SER5       -0.2866
      5  CB         6.0760    5.6650    9.4310 C.3     5  SER5        0.2089
      6  OG         6.0170    6.3620   10.6610 O.3     5  SER5       -0.2183
      7  N          8.8810    0.0280   10.2250 N.3     9  LYS9       -0.1245
      8  CA        10.2750    0.0340   10.6460 C.3     9  LYS9        0.1561
      9  C         10.5630   -1.0900   11.6400 C.2     9  LYS9        0.2260
     10  O         11.5880   -1.7670   11.5460 O.2     9  LYS9       -0.2867
     11  CB        10.6100    1.3860   11.2800 C.3     9  LYS9        0.0271
     12  CG        12.0760    1.5900   11.6220 C.3     9  LYS9        0.0035
     13  CD        12.2740    2.8950   12.3720 C.3     9  LYS9        0.0206
     14  CE        13.7390    3.1530   12.6920 C.3     9  LYS9        0.1093
     15  NZ        14.5290    3.4680   11.4710 N.3     9  LYS9       -0.1314
     16  N         15.5740   -6.7220    7.2830 N.3    16  HIS16      -0.1241
     17  CA        16.5480   -5.7400    6.8110 C.3    16  HIS16       0.1621
     18  C         17.9550   -6.2470    7.1480 C.2    16  HIS16       0.2264
     19  O         18.9060   -6.0390    6.3890 O.2    16  HIS16      -0.2867
     20  CB        16.3080   -4.3740    7.4680 C.3    16  HIS16       0.0745
     21  CG        17.1900   -3.2840    6.9380 C.ar   16  HIS16       0.0817
     22  ND1       18.5330   -3.1960    7.2370 N.ar   16  HIS16      -0.2268
     23  CD2       16.9210   -2.2460    6.1110 C.ar   16  HIS16       0.1154
     24  CE1       19.0530   -2.1510    6.6170 C.ar   16  HIS16       0.1986
     25  NE2       18.0960   -1.5580    5.9260 N.ar   16  HIS16      -0.2212
     26  N         19.0270   -8.8300    4.7540 N.3    19  ALA19      -0.1231
     27  CA        19.4110   -8.1680    3.5120 C.3    19  ALA19       0.1694
     28  C         20.8590   -7.7250    3.6570 C.2    19  ALA19       0.2591
     29  O         21.6670   -7.8960    2.7450 O.2    19  ALA19      -0.2718
     30  CB        18.5110   -6.9620    3.2490 C.3    19  ALA19       0.0304
     31  N         21.1800   -7.1600    4.8160 N.am   20  GLU20      -0.1979
     32  CA        22.5370   -6.7030    5.0850 C.3    20  GLU20       0.1602
     33  C         23.5030   -7.8780    5.1680 C.2    20  GLU20       0.2287
     34  O         24.6380   -7.7820    4.7090 O.2    20  GLU20      -0.2864
     35  CB        22.5880   -5.9130    6.3970 C.3    20  GLU20       0.0415
     36  CG        21.7780   -4.6240    6.3980 C.3    20  GLU20       0.1163
     37  CD        21.8890   -3.8740    7.7160 C.2    20  GLU20       0.3649
     38  OE1       22.9990   -3.4010    8.0460 O.co2  20  GLU20      -0.2457
     39  OE2       20.8690   -3.7660    8.4280 O.co2  20  GLU20      -0.2457
     40  N         25.6120   -8.5350   -0.5210 N.3    25  MET25      -0.1245
     41  CA        25.6460   -7.2400    0.1570 C.3    25  MET25       0.1570
     42  C         26.7750   -7.1610    1.1810 C.2    25  MET25       0.2261
     43  O         27.2880   -6.0750    1.4510 O.2    25  MET25      -0.2867
     44  CB        24.3020   -6.9410    0.8300 C.3    25  MET25       0.0387
     45  CG        23.2000   -6.5530   -0.1450 C.3    25  MET25       0.0595
     46  SD        23.4750   -4.9460   -0.9510 S.3    25  MET25      -0.1393
     47  CE        24.2750   -5.4210   -2.4020 C.3    25  MET25       0.0692
     48  N         29.3590   -4.1620    1.2090 N.3    29  GLN29      -0.1245
     49  CA        29.7110   -3.3430    2.3630 C.3    29  GLN29       0.1566
     50  C         31.2090   -3.3970    2.6350 C.2    29  GLN29       0.2260
     51  O         31.8230   -2.3800    2.9550 O.2    29  GLN29      -0.2867
     52  CB        28.9470   -3.8160    3.5990 C.3    29  GLN29       0.0367
     53  CG        27.4410   -3.7340    3.4610 C.3    29  GLN29       0.0905
     54  CD        26.7220   -4.3190    4.6590 C.2    29  GLN29       0.2608
     55  OE1       26.7240   -3.7380    5.7450 O.2    29  GLN29      -0.2717
     56  NE2       26.1120   -5.4840    4.4710 N.am   29  GLN29      -0.0878
     57  N          7.6000    2.2340   -0.0900 N.3   125  TYR125     -0.1227
     58  CA         8.3060    2.4940    1.1630 C.3   125  TYR125      0.1736
     59  C          9.6630    1.7940    1.1710 C.2   125  TYR125      0.2596
     60  O         10.6990    2.4250    1.3710 O.2   125  TYR125     -0.2718
     61  CB         7.4700    1.9790    2.3350 C.3   125  TYR125      0.0548
     62  CG         8.2560    1.7110    3.5980 C.ar  125  TYR125     -0.0200
     63  CD1        8.6680    2.7560    4.4280 C.ar  125  TYR125     -0.0009
     64  CD2        8.5750    0.4030    3.9750 C.ar  125  TYR125     -0.0009
     65  CE1        9.3760    2.5070    5.6100 C.ar  125  TYR125      0.0417
     66  CE2        9.2830    0.1410    5.1510 C.ar  125  TYR125      0.0417
     67  CZ         9.6790    1.1970    5.9630 C.ar  125  TYR125      0.1957
     68  OH        10.3740    0.9390    7.1250 O.3   125  TYR125     -0.2866
     69  N          9.6370    0.4840    0.9540 N.am  126  THR126     -0.1939
     70  CA        10.8390   -0.3460    0.9440 C.3   126  THR126      0.2028
     71  C         11.9240    0.1380   -0.0230 C.2   126  THR126      0.2642
     72  O         13.0810    0.2580    0.3550 O.2   126  THR126     -0.2714
     73  CB        10.4790   -1.8050    0.5990 C.3   126  THR126      0.1808
     74  OG1        9.5860   -2.3190    1.5950 O.3   126  THR126     -0.2208
     75  CG2       11.7280   -2.6760    0.5550 C.3   126  THR126      0.0379
     76  N         11.5440    0.4040   -1.2680 N.am  127  ARG127     -0.1977
     77  CA        12.4880    0.8700   -2.2790 C.3   127  ARG127      0.1597
     78  C         12.9300    2.3160   -2.0850 C.2   127  ARG127      0.2287
     79  O         14.1100    2.5840   -1.8750 O.2   127  ARG127     -0.2864
     80  CB        11.8840    0.7190   -3.6770 C.3   127  ARG127      0.0334
     81  CG        12.0470   -0.6630   -4.2780 C.3   127  ARG127      0.0492
     82  CD        13.1880   -0.6800   -5.2770 C.3   127  ARG127      0.2205
     83  NE        14.5030   -0.4610   -4.6720 N.pl3 127  ARG127     -0.0865
     84  CZ        15.2580   -1.4210   -4.1470 C.cat 127  ARG127      0.5346
     85  NH1       14.8290   -2.6790   -4.1390 N.pl3 127  ARG127      0.1354
     86  NH2       16.4600   -1.1330   -3.6690 N.pl3 127  ARG127      0.1354
     87  N         12.4200    4.6900    0.4440 N.3   129  LEU129     -0.1231
     88  CA        13.0260    5.0800    1.7140 C.3   129  LEU129      0.1693
     89  C         14.3480    4.3690    1.9810 C.2   129  LEU129      0.2593
     90  O         15.2450    4.9260    2.6160 O.2   129  LEU129     -0.2718
     91  CB        12.0570    4.8520    2.8720 C.3   129  LEU129      0.0284
     92  CG        11.7720    6.1510    3.6280 C.3   129  LEU129      0.0019
     93  CD1       11.1790    7.1690    2.6600 C.3   129  LEU129      0.0001
     94  CD2       10.8260    5.8960    4.7840 C.3   129  LEU129      0.0001
     95  N         14.4700    3.1410    1.4960 N.am  130  GLY130     -0.1942
     96  CA        15.7120    2.4180    1.6730 C.3   130  GLY130      0.2014
     97  C         16.8220    3.0090    0.8210 C.2   130  GLY130      0.2638
     98  O         17.9220    3.2700    1.3110 O.2   130  GLY130     -0.2714
     99  N         16.5350    3.2320   -0.4570 N.am  131  ASP131     -0.1971
    100  CA        17.5330    3.7940   -1.3600 C.3   131  ASP131      0.1709
    101  C         17.9290    5.2000   -0.9190 C.2   131  ASP131      0.2293
    102  O         19.0430    5.6510   -1.1680 O.2   131  ASP131     -0.2864
    103  CB        17.0020    3.8170   -2.8000 C.3   131  ASP131      0.1436
    104  CG        16.7450    2.4220   -3.3470 C.2   131  ASP131      0.3671
    105  OD1       17.3340    1.4540   -2.8270 O.co2 131  ASP131     -0.2456
    106  OD2       15.9650    2.2810   -4.3070 O.co2 131  ASP131     -0.2456
    107  N         18.1510    6.0680    2.1960 N.3   133  SER133     -0.1202
    108  CA        18.8450    5.9650    3.4780 C.3   133  SER133      0.2020
    109  C         20.1590    5.2080    3.3020 C.2   133  SER133      0.2619
    110  O         21.2390    5.7960    3.3460 O.2   133  SER133     -0.2717
    111  CB        17.9770    5.2360    4.5060 C.3   133  SER133      0.2103
    112  OG        16.7690    5.9310    4.7560 O.3   133  SER133     -0.2182
    113  N         20.0630    3.8990    3.1090 N.am  134  GLY134     -0.1956
    114  CA        21.2620    3.1060    2.9230 C.3   134  GLY134      0.1869
    115  C         21.8840    3.3790    1.5680 C.2   134  GLY134      0.2309
    116  O         23.0860    3.2010    1.3650 O.2   134  GLY134     -0.2863
    117  N         25.1830    5.3160    1.6100 N.3   137  VAL137     -0.1231
    118  CA        26.4070    4.7140    2.1440 C.3   137  VAL137      0.1692
    119  C         26.9850    3.8100    1.0600 C.2   137  VAL137      0.2591
    120  O         28.2010    3.6890    0.9110 O.2   137  VAL137     -0.2718
    121  CB        26.1620    3.8500    3.4210 C.3   137  VAL137      0.0266
    122  CG1       25.5750    4.6990    4.5330 C.3   137  VAL137      0.0020
    123  CG2       25.2550    2.6750    3.1030 C.3   137  VAL137      0.0020
    124  N         26.0960    3.1780    0.3020 N.am  138  LEU138     -0.1980
    125  CA        26.5010    2.2930   -0.7790 C.3   138  LEU138      0.1596
    126  C         27.0880    3.1190   -1.9140 C.2   138  LEU138      0.2287
    127  O         27.9690    2.6640   -2.6430 O.2   138  LEU138     -0.2864
    128  CB        25.2960    1.4940   -1.2720 C.3   138  LEU138      0.0297
    129  CG        24.6850    0.5820   -0.2070 C.3   138  LEU138      0.0022
    130  CD1       23.4260   -0.0810   -0.7390 C.3   138  LEU138      0.0001
    131  CD2       25.7150   -0.4620    0.2050 C.3   138  LEU138      0.0001
    132  N          6.9530    9.9470    6.0400 N.3   174  ARG174     -0.1245
    133  CA         6.4250    9.1650    7.1510 C.3   174  ARG174      0.1563
    134  C          5.0460    9.6960    7.5410 C.2   174  ARG174      0.2260
    135  O          4.1150    8.9280    7.7650 O.2   174  ARG174     -0.2867
    136  CB         7.3730    9.2280    8.3500 C.3   174  ARG174      0.0307
    137  CG         8.7340    8.6180    8.0670 C.3   174  ARG174      0.0489
    138  CD         9.4230    8.1720    9.3350 C.3   174  ARG174      0.2205
    139  NE        10.6470    7.4350    9.0430 N.pl3 174  ARG174     -0.0865
    140  CZ        11.8010    8.0030    8.7060 C.cat 174  ARG174      0.5346
    141  NH1       11.8960    9.3270    8.6220 N.pl3 174  ARG174      0.1354
    142  NH2       12.8590    7.2470    8.4480 N.pl3 174  ARG174      0.1354
    143  N         11.4060   -7.1870    1.1090 N.3   198  PHE198     -0.1241
    144  CA        12.7840   -7.5050    1.4840 C.3   198  PHE198      0.1605
    145  C         13.1810   -8.9020    0.9910 C.2   198  PHE198      0.2264
    146  O         14.2770   -9.0950    0.4570 O.2   198  PHE198     -0.2867
    147  CB        12.9770   -7.4280    3.0040 C.3   198  PHE198      0.0534
    148  CG        13.1240   -6.0290    3.5290 C.ar  198  PHE198     -0.0203
    149  CD1       12.0080   -5.2630    3.8400 C.ar  198  PHE198     -0.0042
    150  CD2       14.3860   -5.4630    3.6820 C.ar  198  PHE198     -0.0042
    151  CE1       12.1450   -3.9550    4.2960 C.ar  198  PHE198     -0.0003
    152  CE2       14.5350   -4.1580    4.1350 C.ar  198  PHE198     -0.0003
    153  CZ        13.4140   -3.4010    4.4430 C.ar  198  PHE198     -0.0000
    154  N         14.1850   -8.9460   -2.5510 N.3   201  ASN201     -0.1240
    155  CA        15.5030   -8.3620   -2.7550 C.3   201  ASN201      0.1653
    156  C         16.5600   -9.3940   -2.3470 C.2   201  ASN201      0.2266
    157  O         17.5690   -9.5610   -3.0300 O.2   201  ASN201     -0.2867
    158  CB        15.6660   -7.1010   -1.9020 C.3   201  ASN201      0.1155
    159  CG        15.0350   -5.8730   -2.5360 C.2   201  ASN201      0.2627
    160  OD1       15.6450   -5.2160   -3.3820 O.2   201  ASN201     -0.2716
    161  ND2       13.8080   -5.5590   -2.1310 N.am  201  ASN201     -0.0877
    162  N         19.6550  -10.9780   -4.4800 N.3   205  PHE205     -0.1241
    163  CA        21.0610  -10.9350   -4.0770 C.3   205  PHE205      0.1605
    164  C         21.6740  -12.3320   -4.1540 C.2   205  PHE205      0.2264
    165  O         22.8150  -12.4940   -4.5830 O.2   205  PHE205     -0.2867
    166  CB        21.2120  -10.4150   -2.6430 C.3   205  PHE205      0.0534
    167  CG        20.7440   -8.9920   -2.4440 C.ar  205  PHE205     -0.0203
    168  CD1       20.7420   -8.0820   -3.4990 C.ar  205  PHE205     -0.0042
    169  CD2       20.3330   -8.5590   -1.1830 C.ar  205  PHE205     -0.0042
    170  CE1       20.3360   -6.7600   -3.3020 C.ar  205  PHE205     -0.0003
    171  CE2       19.9270   -7.2420   -0.9730 C.ar  205  PHE205     -0.0003
    172  CZ        19.9280   -6.3400   -2.0360 C.ar  205  PHE205     -0.0000
@<TRIPOS>BOND
     1    82    83    1
     2    82    81    1
     3    83    84    2
     4   165   164    2
     5   162   163    1
     6   106   104   ar
     7    81    80    1
     8   164   163    1
     9    84    85    1
    10    84    86    1
    11   163   166    1
    12    80    77    1
    13   168   170   ar
    14   168   167   ar
    15   160   159    2
    16   104   105   ar
    17   104   103    1
    18   170   172   ar
    19   157   156    2
    20   103   100    1
    21   155   154    1
    22   155   156    1
    23   155   158    1
    24   127   126    2
    25   166   167    1
    26   159   161   am
    27   159   158    1
    28   167   169   ar
    29    47    46    1
    30    77    78    1
    31    77    76    1
    32    78    79    2
    33   172   171   ar
    34   126   125    1
    35   100   101    1
    36   100    99    1
    37   128   125    1
    38   128   129    1
    39    76    71   am
    40   169   171   ar
    41   102   101    2
    42    46    45    1
    43   125   124    1
    44   130   129    1
    45    40    41    1
    46    99    97   am
    47   129   131    1
    48    45    44    1
    49    57    58    1
    50    71    72    2
    51    71    70    1
    52    41    44    1
    53    41    42    1
    54   124   119   am
    55    87    88    1
    56   146   145    2
    57    75    73    1
    58    73    70    1
    59    73    74    1
    60    97    98    2
    61    97    96    1
    62   120   119    2
    63    70    69    1
    64    69    59   am
    65   145   144    1
    66   119   118    1
    67   143   144    1
    68    58    59    1
    69    58    61    1
    70    59    60    2
    71    42    43    2
    72    48    49    1
    73   116   115    2
    74   144   147    1
    75    95    96    1
    76    95    89   am
    77   115   114    1
    78   117   118    1
    79    88    89    1
    80    88    91    1
    81    89    90    2
    82   118   121    1
    83   107   108    1
    84    61    62    1
    85    49    50    1
    86    49    52    1
    87    50    51    2
    88    93    92    1
    89    29    28    2
    90    91    92    1
    91   114   113    1
    92   147   148    1
    93   123   121    1
    94   113   109   am
    95    30    27    1
    96   109   110    2
    97   109   108    1
    98   121   122    1
    99    53    52    1
   100    53    54    1
   101   108   111    1
   102    27    28    1
   103    27    26    1
   104   148   150   ar
   105   148   149   ar
   106    62    64   ar
   107    62    63   ar
   108    92    94    1
   109    28    31   am
   110   150   152   ar
   111   149   151   ar
   112    64    66   ar
   113   152   153   ar
   114   151   153   ar
   115    63    65   ar
   116    56    54   am
   117   111   112    1
   118    54    55    2
   119    34    33    2
   120    31    32    1
   121    32    33    1
   122    32    35    1
   123    66    67   ar
   124    65    67   ar
   125    25    23   ar
   126    25    24   ar
   127    67    68    1
   128   132   133    1
   129    23    21   ar
   130    19    18    2
   131    35    36    1
   132    36    37    1
   133    24    22   ar
   134    17    18    1
   135    17    16    1
   136    17    20    1
   137    21    22   ar
   138    21    20    1
   139   133   134    1
   140   133   136    1
   141   134   135    2
   142    37    38   ar
   143    37    39   ar
   144   137   136    1
   145   137   138    1
   146   142   140    1
   147   141   140    1
   148   140   139    2
   149   139   138    1
   150     5     2    1
   151     5     6    1
   152     2     1    1
   153     2     3    1
   154     7     8    1
   155     4     3    2
   156     8    11    1
   157     8     9    1
   158    11    12    1
   159    15    14    1
   160    10     9    2
   161    12    13    1
   162    13    14    1
