@<TRIPOS>MOLECULE
tmp/1twqA00.pdb
 200 198 0 0 0
SMALL
GASTEIGER

@<TRIPOS>ATOM
      1  N        -19.4590   61.7150    6.6670 N.3    31  ILE31      -0.1231
      2  CA       -18.8940   62.7820    5.8610 C.3    31  ILE31       0.1692
      3  C        -19.9110   63.2320    4.8290 C.2    31  ILE31       0.2592
      4  O        -20.8960   62.5310    4.5710 O.2    31  ILE31      -0.2718
      5  CB       -17.6620   62.2300    5.0870 C.3    31  ILE31       0.0266
      6  CG1      -16.6100   61.7250    6.0790 C.3    31  ILE31       0.0019
      7  CG2      -17.0900   63.2800    4.1440 C.3    31  ILE31       0.0020
      8  CD1      -15.5380   60.8730    5.4360 C.3    31  ILE31       0.0001
      9  N        -19.6980   64.4150    4.2650 N.am   32  HIS32      -0.1962
     10  CA       -20.5440   64.8660    3.1670 C.3    32  HIS32       0.1787
     11  C        -19.5620   65.3310    2.0940 C.2    32  HIS32       0.2621
     12  O        -18.5130   65.8970    2.4160 O.2    32  HIS32      -0.2715
     13  CB       -21.5380   65.9700    3.5820 C.3    32  HIS32       0.0785
     14  CG       -20.9350   67.3240    3.7960 C.ar   32  HIS32       0.0821
     15  ND1      -21.7010   68.4710    3.7990 N.ar   32  HIS32      -0.2267
     16  CD2      -19.6670   67.7200    4.0490 C.ar   32  HIS32       0.1154
     17  CE1      -20.9300   69.5140    4.0420 C.ar   32  HIS32       0.1986
     18  NE2      -19.6900   69.0850    4.1980 N.ar   32  HIS32      -0.2212
     19  N        -19.8600   65.0550    0.8280 N.am   33  THR33      -0.1937
     20  CA       -18.9420   65.4430   -0.2400 C.3    33  THR33       0.2028
     21  C        -18.8080   66.9580   -0.3660 C.2    33  THR33       0.2642
     22  O        -17.8770   67.4550   -1.0040 O.2    33  THR33      -0.2714
     23  CB       -19.3650   64.8320   -1.6100 C.3    33  THR33       0.1808
     24  OG1      -20.6910   65.2570   -1.9550 O.3    33  THR33      -0.2208
     25  CG2      -19.3340   63.3200   -1.5380 C.3    33  THR33       0.0379
     26  N        -19.7370   67.6830    0.2540 N.am   34  ALA34      -0.1963
     27  CA       -19.7310   69.1420    0.2240 C.3    34  ALA34       0.1728
     28  C        -19.9170   69.7000   -1.1820 C.2    34  ALA34       0.2616
     29  O        -19.8160   70.9060   -1.3920 O.2    34  ALA34      -0.2715
     30  CB       -18.4320   69.6720    0.8210 C.3    34  ALA34       0.0334
     31  N        -20.1890   68.8280   -2.1470 N.am   35  GLY35      -0.1955
     32  CA       -20.3890   69.2950   -3.5080 C.3    35  GLY35       0.1869
     33  C        -21.8400   69.1590   -3.9320 C.2    35  GLY35       0.2309
     34  O        -22.7420   69.1720   -3.0990 O.2    35  GLY35      -0.2863
     35  N        -15.4530   62.5030   -8.4420 N.3    51  ILE51      -0.1245
     36  CA       -14.7740   62.6410   -7.1690 C.3    51  ILE51       0.1561
     37  C        -13.5340   61.7520   -7.1340 C.2    51  ILE51       0.2260
     38  O        -12.5110   62.1450   -6.5770 O.2    51  ILE51      -0.2867
     39  CB       -15.6900   62.2730   -5.9880 C.3    51  ILE51       0.0252
     40  CG1      -16.7860   63.3350   -5.8170 C.3    51  ILE51       0.0019
     41  CG2      -14.8600   62.1520   -4.7080 C.3    51  ILE51       0.0019
     42  CD1      -17.7980   63.0080   -4.7200 C.3    51  ILE51       0.0001
     43  N        -10.8660   63.5340   -9.1370 N.3    54  PHE54      -0.1227
     44  CA       -10.3880   64.6960   -8.4080 C.3    54  PHE54       0.1736
     45  C         -9.4550   64.2650   -7.2800 C.2    54  PHE54       0.2595
     46  O         -8.3900   64.8490   -7.0890 O.2    54  PHE54      -0.2718
     47  CB       -11.5650   65.4740   -7.8230 C.3    54  PHE54       0.0547
     48  CG       -11.1540   66.6350   -6.9600 C.ar   54  PHE54      -0.0202
     49  CD1      -10.4130   67.6860   -7.4900 C.ar   54  PHE54      -0.0042
     50  CD2      -11.5040   66.6770   -5.6130 C.ar   54  PHE54      -0.0042
     51  CE1      -10.0250   68.7630   -6.6920 C.ar   54  PHE54      -0.0003
     52  CE2      -11.1190   67.7520   -4.8020 C.ar   54  PHE54      -0.0003
     53  CZ       -10.3780   68.7950   -5.3470 C.ar   54  PHE54      -0.0000
     54  N         -9.8570   63.2460   -6.5320 N.am   55  HIS55      -0.1975
     55  CA        -9.0440   62.7600   -5.4320 C.3    55  HIS55       0.1656
     56  C         -7.7220   62.1640   -5.9030 C.2    55  HIS55       0.2291
     57  O         -6.7070   62.2780   -5.2240 O.2    55  HIS55      -0.2864
     58  CB        -9.8090   61.7110   -4.6260 C.3    55  HIS55       0.0771
     59  CG       -10.7920   62.2910   -3.6600 C.ar   55  HIS55       0.0820
     60  ND1      -11.5370   61.5130   -2.7990 N.ar   55  HIS55      -0.2267
     61  CD2      -11.1450   63.5730   -3.4090 C.ar   55  HIS55       0.1154
     62  CE1      -12.3050   62.2920   -2.0570 C.ar   55  HIS55       0.1986
     63  NE2      -12.0860   63.5460   -2.4070 N.ar   55  HIS55      -0.2212
     64  N         -5.5600   65.7350   -5.8050 N.3    59  ARG59      -0.1231
     65  CA        -5.2970   65.5330   -4.3770 C.3    59  ARG59       0.1694
     66  C         -4.2070   64.4720   -4.1930 C.2    59  ARG59       0.2592
     67  O         -3.6120   64.3560   -3.1250 O.2    59  ARG59      -0.2718
     68  CB        -6.5730   65.0930   -3.6470 C.3    59  ARG59       0.0321
     69  CG        -7.7460   66.0760   -3.7340 C.3    59  ARG59       0.0489
     70  CD        -7.5240   67.3500   -2.9170 C.3    59  ARG59       0.2205
     71  NE        -7.5440   67.1210   -1.4700 N.pl3  59  ARG59      -0.0865
     72  CZ        -8.6440   66.9160   -0.7450 C.cat  59  ARG59       0.5346
     73  NH1       -9.8420   66.9080   -1.3220 N.pl3  59  ARG59       0.1354
     74  NH2       -8.5450   66.7200    0.5670 N.pl3  59  ARG59       0.1354
     75  N         -3.9570   63.7010   -5.2460 N.am   60  ASN60      -0.1960
     76  CA        -2.9440   62.6460   -5.2340 C.3    60  ASN60       0.1819
     77  C         -3.2530   61.4640   -4.3200 C.2    60  ASN60       0.2621
     78  O         -2.3380   60.7710   -3.8640 O.2    60  ASN60      -0.2715
     79  CB        -1.5700   63.2190   -4.8650 C.3    60  ASN60       0.1195
     80  CG        -1.1160   64.3080   -5.8210 C.2    60  ASN60       0.2630
     81  OD1       -1.0730   64.1070   -7.0370 O.2    60  ASN60      -0.2716
     82  ND2       -0.7760   65.4720   -5.2720 N.am   60  ASN60      -0.0877
     83  N         -4.5330   61.2330   -4.0460 N.am   61  PHE61      -0.1974
     84  CA        -4.9340   60.1010   -3.2120 C.3    61  PHE61       0.1639
     85  C         -4.7680   58.8570   -4.0810 C.2    61  PHE61       0.2290
     86  O         -4.7380   58.9590   -5.3050 O.2    61  PHE61      -0.2864
     87  CB        -6.4040   60.2260   -2.7910 C.3    61  PHE61       0.0560
     88  CG        -6.6740   61.3270   -1.8050 C.ar   61  PHE61      -0.0200
     89  CD1       -7.9820   61.6240   -1.4270 C.ar   61  PHE61      -0.0042
     90  CD2       -5.6320   62.0550   -1.2370 C.ar   61  PHE61      -0.0042
     91  CE1       -8.2510   62.6260   -0.5010 C.ar   61  PHE61      -0.0003
     92  CE2       -5.8910   63.0640   -0.3040 C.ar   61  PHE61      -0.0003
     93  CZ        -7.2050   63.3470    0.0630 C.ar   61  PHE61      -0.0000
     94  N        -13.3730   57.7890    0.0920 N.3    66  TYR66      -0.1241
     95  CA       -14.4020   57.1740    0.9230 C.3    66  TYR66       0.1605
     96  C        -14.6100   55.6810    0.6810 C.2    66  TYR66       0.2264
     97  O        -14.4080   55.1780   -0.4290 O.2    66  TYR66      -0.2867
     98  CB       -15.7280   57.8990    0.7050 C.3    66  TYR66       0.0534
     99  CG       -15.6000   59.4030    0.6090 C.ar   66  TYR66      -0.0201
    100  CD1      -15.8010   60.0620   -0.5990 C.ar   66  TYR66      -0.0009
    101  CD2      -15.2680   60.1660    1.7300 C.ar   66  TYR66      -0.0009
    102  CE1      -15.6780   61.4470   -0.6930 C.ar   66  TYR66       0.0417
    103  CE2      -15.1420   61.5500    1.6500 C.ar   66  TYR66       0.0417
    104  CZ       -15.3480   62.1850    0.4360 C.ar   66  TYR66       0.1957
    105  OH       -15.2150   63.5520    0.3580 O.3    66  TYR66      -0.2866
    106  N         -7.9860   50.7970    2.3290 N.3    85  GLN85      -0.1231
    107  CA        -7.7730   51.8850    3.2650 C.3    85  GLN85       0.1698
    108  C         -8.4090   53.1650    2.7350 C.2    85  GLN85       0.2593
    109  O         -8.4500   53.3890    1.5310 O.2    85  GLN85      -0.2718
    110  CB        -6.2730   52.0680    3.4680 C.3    85  GLN85       0.0381
    111  CG        -5.8910   53.1830    4.4050 C.3    85  GLN85       0.0905
    112  CD        -4.4080   53.1510    4.7480 C.2    85  GLN85       0.2608
    113  OE1       -3.9260   52.1980    5.3660 O.2    85  GLN85      -0.2717
    114  NE2       -3.6760   54.1880    4.3360 N.am   85  GLN85      -0.0878
    115  N         -8.9170   54.0020    3.6320 N.am   86  GLY86      -0.1942
    116  CA        -9.5320   55.2390    3.1920 C.3    86  GLY86       0.2014
    117  C         -8.5440   56.3830    3.1190 C.2    86  GLY86       0.2640
    118  O         -7.3890   56.2430    3.5260 O.2    86  GLY86      -0.2714
    119  N         -8.9960   57.5060    2.5670 N.am   87  SER87      -0.1935
    120  CA        -8.2040   58.7340    2.4630 C.3    87  SER87       0.2055
    121  C         -9.2150   59.8320    2.7660 C.2    87  SER87       0.2643
    122  O         -9.4150   60.7370    1.9600 O.2    87  SER87      -0.2714
    123  CB        -7.6620   58.9390    1.0430 C.3    87  SER87       0.2130
    124  OG        -6.7720   57.9070    0.6550 O.3    87  SER87      -0.2179
    125  N         -9.8600   59.7490    3.9260 N.am   88  HIS88      -0.1959
    126  CA       -10.8900   60.7200    4.2750 C.3    88  HIS88       0.1787
    127  C        -10.6920   61.4970    5.5700 C.2    88  HIS88       0.2621
    128  O        -11.2680   62.5750    5.7400 O.2    88  HIS88      -0.2715
    129  CB       -12.2400   60.0080    4.3250 C.3    88  HIS88       0.0785
    130  CG       -12.2670   58.8370    5.2570 C.ar   88  HIS88       0.0821
    131  ND1      -12.2340   58.9750    6.6280 N.ar   88  HIS88      -0.2267
    132  CD2      -12.3180   57.5040    5.0150 C.ar   88  HIS88       0.1154
    133  CE1      -12.2680   57.7790    7.1910 C.ar   88  HIS88       0.1986
    134  NE2      -12.3180   56.8700    6.2340 N.ar   88  HIS88      -0.2212
    135  N         -9.9030   60.9570    6.4910 N.am   89  THR89      -0.1937
    136  CA        -9.6780   61.6480    7.7550 C.3    89  THR89       0.2028
    137  C         -8.3000   61.3480    8.3130 C.2    89  THR89       0.2642
    138  O         -7.9360   60.1860    8.5050 O.2    89  THR89      -0.2714
    139  CB       -10.7270   61.2480    8.7960 C.3    89  THR89       0.1808
    140  OG1      -12.0390   61.4360    8.2510 O.3    89  THR89      -0.2208
    141  CG2      -10.5820   62.1020   10.0400 C.3    89  THR89       0.0379
    142  N         -7.5310   62.3990    8.5770 N.am   90  TYR90      -0.1973
    143  CA        -6.1870   62.2200    9.1020 C.3    90  TYR90       0.1639
    144  C         -6.1700   61.3770   10.3690 C.2    90  TYR90       0.2290
    145  O         -6.9180   61.6320   11.3030 O.2    90  TYR90      -0.2864
    146  CB        -5.5240   63.5700    9.4030 C.3    90  TYR90       0.0560
    147  CG        -4.1810   63.4030   10.0700 C.ar   90  TYR90      -0.0198
    148  CD1       -3.0680   62.9520    9.3450 C.ar   90  TYR90      -0.0009
    149  CD2       -4.0410   63.5900   11.4480 C.ar   90  TYR90      -0.0009
    150  CE1       -1.8420   62.6810    9.9830 C.ar   90  TYR90       0.0417
    151  CE2       -2.8250   63.3230   12.0990 C.ar   90  TYR90       0.0417
    152  CZ        -1.7330   62.8680   11.3630 C.ar   90  TYR90       0.1957
    153  OH        -0.5500   62.5900   12.0100 O.3    90  TYR90      -0.2866
    154  N         -7.7820   56.7610    8.6920 N.3    93  ASN93      -0.1240
    155  CA        -7.9920   56.0250    7.4540 C.3    93  ASN93       0.1653
    156  C         -7.8460   54.5140    7.5250 C.2    93  ASN93       0.2266
    157  O         -8.4330   53.8030    6.7080 O.2    93  ASN93      -0.2867
    158  CB        -7.0720   56.5650    6.3600 C.3    93  ASN93       0.1155
    159  CG        -7.3720   58.0040    6.0110 C.2    93  ASN93       0.2627
    160  OD1       -8.5350   58.3860    5.8530 O.2    93  ASN93      -0.2716
    161  ND2       -6.3260   58.8110    5.8770 N.am   93  ASN93      -0.0877
    162  N        -17.2960   63.8940   10.8140 N.3   140  HIS140     -0.1241
    163  CA       -16.0200   64.3850   10.3110 C.3   140  HIS140      0.1621
    164  C        -15.4690   65.4910   11.2270 C.2   140  HIS140      0.2264
    165  O        -14.3590   65.3810   11.7620 O.2   140  HIS140     -0.2867
    166  CB       -16.2210   64.9440    8.9000 C.3   140  HIS140      0.0745
    167  CG       -15.1800   64.5100    7.9140 C.ar  140  HIS140      0.0817
    168  ND1      -15.2150   64.8820    6.5870 N.ar  140  HIS140     -0.2268
    169  CD2      -14.0840   63.7270    8.0550 C.ar  140  HIS140      0.1154
    170  CE1      -14.1870   64.3460    5.9530 C.ar  140  HIS140      0.1986
    171  NE2      -13.4840   63.6410    6.8220 N.ar  140  HIS140     -0.2212
    172  N        -11.4230   66.3320   12.8930 N.3   144  VAL144     -0.1245
    173  CA       -10.5460   67.3500   12.3320 C.3   144  VAL144      0.1561
    174  C        -11.3150   68.6220   12.0630 C.2   144  VAL144      0.2260
    175  O        -12.5470   68.6360   12.0740 O.2   144  VAL144     -0.2867
    176  CB        -9.8990   66.8940   11.0150 C.3   144  VAL144      0.0252
    177  CG1       -9.0200   65.6850   11.2630 C.3   144  VAL144      0.0019
    178  CG2      -10.9810   66.5710    9.9940 C.3   144  VAL144      0.0019
    179  N        -12.9590   70.5860    9.9430 N.3   146  ILE146     -0.1231
    180  CA       -13.5360   70.5210    8.6090 C.3   146  ILE146      0.1692
    181  C        -15.0270   70.8190    8.6160 C.2   146  ILE146      0.2592
    182  O        -15.7260   70.5330    9.5860 O.2   146  ILE146     -0.2718
    183  CB       -13.3040   69.1180    7.9890 C.3   146  ILE146      0.0266
    184  CG1      -13.5700   69.1460    6.4890 C.3   146  ILE146      0.0019
    185  CG2      -14.2320   68.0940    8.6330 C.3   146  ILE146      0.0020
    186  CD1      -13.1770   67.8470    5.7980 C.3   146  ILE146      0.0001
    187  N        -15.4960   71.4080    7.5230 N.am  147  LEU147     -0.1966
    188  CA       -16.9050   71.7400    7.3580 C.3   147  LEU147      0.1728
    189  C        -17.5350   70.4950    6.7290 C.2   147  LEU147      0.2616
    190  O        -17.8240   70.4490    5.5300 O.2   147  LEU147     -0.2715
    191  CB       -17.0450   72.9460    6.4240 C.3   147  LEU147      0.0311
    192  CG       -18.2210   73.8980    6.6530 C.3   147  LEU147      0.0022
    193  CD1      -19.5170   73.1220    6.5890 C.3   147  LEU147      0.0001
    194  CD2      -18.0800   74.5890    8.0040 C.3   147  LEU147      0.0001
    195  N        -17.7030   69.4740    7.5570 N.am  148  SER148     -0.1950
    196  CA       -18.2720   68.1990    7.1500 C.3   148  SER148      0.1924
    197  C        -18.6750   67.5300    8.4560 C.2   148  SER148      0.2314
    198  O        -17.9650   67.6380    9.4460 O.2   148  SER148     -0.2863
    199  CB       -17.2100   67.3750    6.4200 C.3   148  SER148      0.2116
    200  OG       -17.6220   66.0370    6.2180 O.3   148  SER148     -0.2180
@<TRIPOS>BOND
     1    43    44    1
     2    35    36    1
     3    44    47    1
     4    44    45    1
     5    47    48    1
     6    49    48   ar
     7    49    51   ar
     8    45    46    2
     9    45    54   am
    10    36    37    1
    11    36    39    1
    12    37    38    2
    13    81    80    2
    14    48    50   ar
    15    51    53   ar
    16    54    55    1
    17    39    40    1
    18    39    41    1
    19    56    55    1
    20    56    57    2
    21    80    82   am
    22    80    79    1
    23    40    42    1
    24    64    65    1
    25    50    52   ar
    26    55    58    1
    27    53    52   ar
    28    86    85    2
    29    75    76    1
    30    75    66   am
    31    76    79    1
    32    76    77    1
    33    58    59    1
    34    65    66    1
    35    65    68    1
    36    77    83   am
    37    77    78    2
    38    66    67    2
    39    85    84    1
    40    83    84    1
    41    33    32    1
    42    33    34    2
    43    69    68    1
    44    69    70    1
    45    59    61   ar
    46    59    60   ar
    47    32    31    1
    48    61    63   ar
    49    84    87    1
    50    70    71    1
    51    60    62   ar
    52    87    88    1
    53    63    62   ar
    54    31    28   am
    55    24    23    1
    56    88    89   ar
    57    88    90   ar
    58    23    25    1
    59    23    20    1
    60    71    72    2
    61    89    91   ar
    62    29    28    2
    63    73    72    1
    64    90    92   ar
    65    28    27    1
    66    22    21    2
    67    72    74    1
    68   102   100   ar
    69   102   104   ar
    70   100    99   ar
    71    91    93   ar
    72    97    96    2
    73    21    20    1
    74    21    26   am
    75    92    93   ar
    76    20    19    1
    77    94    95    1
    78    27    26    1
    79    27    30    1
    80   105   104    1
    81   104   103   ar
    82    99    98    1
    83    99   101   ar
    84   124   123    1
    85    96    95    1
    86    98    95    1
    87    19    11   am
    88   123   120    1
    89   109   108    2
    90   103   101   ar
    91   122   121    2
    92    11    12    2
    93    11    10    1
    94   106   107    1
    95   120   119    1
    96   120   121    1
    97   119   117   am
    98   108   107    1
    99   108   115   am
   100   121   125   am
   101   117   116    1
   102   117   118    2
   103    10    13    1
   104    10     9    1
   105   116   115    1
   106   107   110    1
   107   110   111    1
   108    13    14    1
   109    14    15   ar
   110    14    16   ar
   111    15    17   ar
   112   125   126    1
   113    17    18   ar
   114    16    18   ar
   115     7     5    1
   116     9     3   am
   117   126   129    1
   118   126   127    1
   119   129   130    1
   120   114   112   am
   121   111   112    1
   122     4     3    2
   123   112   113    2
   124     3     2    1
   125   132   130   ar
   126   132   134   ar
   127     5     2    1
   128     5     6    1
   129   130   131   ar
   130     8     6    1
   131   190   189    2
   132   127   128    2
   133   127   135   am
   134   186   184    1
   135   160   159    2
   136     2     1    1
   137   161   159   am
   138   170   168   ar
   139   170   171   ar
   140   159   158    1
   141   200   199    1
   142   134   133   ar
   143   158   155    1
   144   199   196    1
   145   191   192    1
   146   191   188    1
   147   184   183    1
   148   135   136    1
   149   168   167   ar
   150   193   192    1
   151   131   133   ar
   152   192   194    1
   153   157   156    2
   154   189   188    1
   155   189   195   am
   156   171   169   ar
   157   196   195    1
   158   196   197    1
   159   188   187    1
   160   155   156    1
   161   155   154    1
   162   187   181   am
   163   136   137    1
   164   136   139    1
   165   167   169   ar
   166   167   166    1
   167   183   180    1
   168   183   185    1
   169   140   139    1
   170   137   138    2
   171   137   142   am
   172   197   198    2
   173   142   143    1
   174   180   181    1
   175   180   179    1
   176   181   182    2
   177   139   141    1
   178   166   163    1
   179   143   146    1
   180   143   144    1
   181   148   150   ar
   182   148   147   ar
   183   146   147    1
   184   150   152   ar
   185   178   176    1
   186   147   149   ar
   187   163   162    1
   188   163   164    1
   189   144   145    2
   190   176   177    1
   191   176   173    1
   192   164   165    2
   193   152   153    1
   194   152   151   ar
   195   149   151   ar
   196   174   175    2
   197   174   173    1
   198   173   172    1
