@<TRIPOS>MOLECULE
tmp/1twwB00.pdb
 123 110 0 0 0
SMALL
GASTEIGER

@<TRIPOS>ATOM
      1  N        -70.5620   59.0370  130.3640 N.3    24  ILE24      -0.1245
      2  CA       -69.2930   59.6740  129.9950 C.3    24  ILE24       0.1561
      3  C        -69.3120   60.1190  128.5220 C.2    24  ILE24       0.2260
      4  O        -69.3320   59.2780  127.6050 O.2    24  ILE24      -0.2867
      5  CB       -68.0830   58.7430  130.2340 C.3    24  ILE24       0.0252
      6  CG1      -68.0830   58.2000  131.6640 C.3    24  ILE24       0.0019
      7  CG2      -66.7750   59.4710  129.9670 C.3    24  ILE24       0.0019
      8  CD1      -67.2960   56.9020  131.7860 C.3    24  ILE24       0.0001
      9  N        -65.9990   67.7930  134.0310 N.3    87  ASP87      -0.1239
     10  CA       -64.8870   66.9850  134.5050 C.3    87  ASP87       0.1674
     11  C        -63.5860   67.7640  134.5000 C.2    87  ASP87       0.2266
     12  O        -62.8040   67.6590  133.5690 O.2    87  ASP87      -0.2867
     13  CB       -64.7380   65.7300  133.6490 C.3    87  ASP87       0.1410
     14  CG       -63.7430   64.7490  134.2410 C.2    87  ASP87       0.3668
     15  OD1      -63.6820   63.5770  133.7950 O.co2  87  ASP87      -0.2456
     16  OD2      -63.0010   65.0630  135.1850 O.co2  87  ASP87      -0.2456
     17  N        -67.0870   68.1130  138.7470 N.3   106  ASN106     -0.1240
     18  CA       -66.5040   66.8090  138.9080 C.3   106  ASN106      0.1653
     19  C        -64.9830   66.8840  138.9900 C.2   106  ASN106      0.2266
     20  O        -64.2800   67.0070  137.9840 O.2   106  ASN106     -0.2867
     21  CB       -66.9330   65.9160  137.7620 C.3   106  ASN106      0.1155
     22  CG       -66.5330   64.4890  137.9790 C.2   106  ASN106      0.2627
     23  OD1      -66.2570   64.0920  139.1180 O.2   106  ASN106     -0.2716
     24  ND2      -66.5070   63.6880  136.9000 N.am  106  ASN106     -0.0877
     25  N        -61.5550   65.1850  140.0000 N.3   108  ILE108     -0.1245
     26  CA       -60.7210   64.0200  140.3090 C.3   108  ILE108      0.1561
     27  C        -59.6190   64.2780  141.3240 C.2   108  ILE108      0.2260
     28  O        -58.9110   63.3420  141.6790 O.2   108  ILE108     -0.2867
     29  CB       -60.0670   63.3750  139.0260 C.3   108  ILE108      0.0252
     30  CG1      -59.1920   64.3710  138.2520 C.3   108  ILE108      0.0019
     31  CG2      -61.1270   62.7900  138.1020 C.3   108  ILE108      0.0019
     32  CD1      -58.1460   63.6610  137.3510 C.3   108  ILE108      0.0001
     33  N        -68.4220   66.8300  143.0690 N.3   129  ILE129     -0.1245
     34  CA       -67.9150   65.5160  143.3520 C.3   129  ILE129      0.1561
     35  C        -66.4800   65.6110  143.7720 C.2   129  ILE129      0.2260
     36  O        -65.6540   66.0680  143.0260 O.2   129  ILE129     -0.2867
     37  CB       -68.0150   64.6360  142.1290 C.3   129  ILE129      0.0252
     38  CG1      -69.4800   64.3590  141.8070 C.3   129  ILE129      0.0019
     39  CG2      -67.2810   63.3250  142.3770 C.3   129  ILE129      0.0019
     40  CD1      -69.7430   64.1700  140.3310 C.3   129  ILE129      0.0001
     41  N        -63.4380   63.4410  144.4780 N.3   131  MET131     -0.1245
     42  CA       -62.9290   62.0650  144.2490 C.3   131  MET131      0.1570
     43  C        -61.7060   61.8030  145.0640 C.2   131  MET131      0.2261
     44  O        -60.8410   62.6720  145.1910 O.2   131  MET131     -0.2867
     45  CB       -62.5990   61.8470  142.7790 C.3   131  MET131      0.0387
     46  CG       -62.3050   60.4300  142.4450 C.3   131  MET131      0.0595
     47  SD       -61.7370   60.1390  140.7380 S.3   131  MET131     -0.1393
     48  CE       -60.0520   60.3280  140.8850 C.3   131  MET131      0.0692
     49  N        -66.4190   60.1210  146.0010 N.3   170  ASP170     -0.1239
     50  CA       -66.1470   59.0980  145.0200 C.3   170  ASP170      0.1674
     51  C        -64.8730   58.4070  145.4700 C.2   170  ASP170      0.2266
     52  O        -63.9300   59.0950  145.7620 O.2   170  ASP170     -0.2867
     53  CB       -65.9720   59.8130  143.6840 C.3   170  ASP170      0.1410
     54  CG       -65.5960   58.8860  142.5400 C.2   170  ASP170      0.3668
     55  OD1      -65.9930   59.2690  141.4100 O.co2 170  ASP170     -0.2456
     56  OD2      -64.8960   57.8430  142.6570 O.co2 170  ASP170     -0.2456
     57  N        -61.6910   54.8560  142.1600 N.3   173  ILE173     -0.1245
     58  CA       -61.1900   53.5530  141.7020 C.3   173  ILE173      0.1561
     59  C        -60.3690   53.7520  140.4110 C.2   173  ILE173      0.2260
     60  O        -60.8350   54.3400  139.4300 O.2   173  ILE173     -0.2867
     61  CB       -62.3580   52.6060  141.3370 C.3   173  ILE173      0.0252
     62  CG1      -63.3200   52.3690  142.5110 C.3   173  ILE173      0.0019
     63  CG2      -61.7850   51.2790  140.8040 C.3   173  ILE173      0.0019
     64  CD1      -62.6890   51.7870  143.7840 C.3   173  ILE173      0.0001
     65  N        -57.3510   55.2050  140.5360 N.3   175  PHE175     -0.1241
     66  CA       -56.4150   56.2950  140.8140 C.3   175  PHE175      0.1605
     67  C        -55.6530   56.0270  142.0940 C.2   175  PHE175      0.2264
     68  O        -56.2540   55.6850  143.1350 O.2   175  PHE175     -0.2867
     69  CB       -57.1430   57.6010  141.0260 C.3   175  PHE175      0.0534
     70  CG       -57.8080   58.1210  139.8140 C.ar  175  PHE175     -0.0203
     71  CD1      -59.1060   57.7110  139.4850 C.ar  175  PHE175     -0.0042
     72  CD2      -57.1680   59.0480  139.0150 C.ar  175  PHE175     -0.0042
     73  CE1      -59.7510   58.2220  138.3490 C.ar  175  PHE175     -0.0003
     74  CE2      -57.7900   59.5650  137.8910 C.ar  175  PHE175     -0.0003
     75  CZ       -59.0990   59.1480  137.5560 C.ar  175  PHE175     -0.0000
     76  N        -70.4750   58.3990  144.3880 N.3   200  LEU200     -0.1245
     77  CA       -70.4420   58.0830  142.9740 C.3   200  LEU200      0.1561
     78  C        -69.2920   57.1310  142.7360 C.2   200  LEU200      0.2260
     79  O        -68.1810   57.3380  143.2480 O.2   200  LEU200     -0.2867
     80  CB       -70.3160   59.3660  142.1470 C.3   200  LEU200      0.0270
     81  CG       -70.2040   59.2540  140.6460 C.3   200  LEU200      0.0019
     82  CD1      -70.8180   60.4480  139.9670 C.3   200  LEU200      0.0001
     83  CD2      -68.7710   59.1680  140.2620 C.3   200  LEU200      0.0001
     84  N        -66.9640   55.1160  139.8410 N.3   202  GLY202     -0.1225
     85  CA       -66.4840   55.2060  138.4670 C.3   202  GLY202      0.1811
     86  C        -65.5060   54.1340  138.1350 C.2   202  GLY202      0.2280
     87  O        -64.3650   54.2640  138.4270 O.2   202  GLY202     -0.2866
     88  N        -65.7750   52.3070  134.9900 N.3   204  SER204     -0.1217
     89  CA       -66.0700   51.9260  133.6010 C.3   204  SER204      0.1889
     90  C        -64.8440   51.6330  132.7670 C.2   204  SER204      0.2288
     91  O        -63.9830   52.4870  132.5570 O.2   204  SER204     -0.2866
     92  CB       -66.9100   52.9750  132.9020 C.3   204  SER204      0.2089
     93  OG       -67.4780   52.4030  131.7330 O.3   204  SER204     -0.2183
     94  N        -62.1210   50.2980  133.2870 N.3   206  LYS206     -0.1245
     95  CA       -60.8250   50.7150  133.7860 C.3   206  LYS206      0.1561
     96  C        -59.8960   49.5340  133.7210 C.2   206  LYS206      0.2260
     97  O        -60.3030   48.3870  133.5090 O.2   206  LYS206     -0.2867
     98  CB       -60.9260   51.2910  135.2080 C.3   206  LYS206      0.0271
     99  CG       -61.7010   52.5940  135.2510 C.3   206  LYS206      0.0035
    100  CD       -61.2230   53.5300  136.3530 C.3   206  LYS206      0.0206
    101  CE       -62.1930   54.6880  136.4340 C.3   206  LYS206      0.1093
    102  NZ       -61.8510   55.7650  137.3990 N.3   206  LYS206     -0.1314
    103  N        -70.7940   56.1590  137.0350 N.3   240  ARG240     -0.1245
    104  CA       -70.2800   56.8850  135.8900 C.3   240  ARG240      0.1563
    105  C        -69.7090   55.8830  134.9230 C.2   240  ARG240      0.2260
    106  O        -68.6860   55.2760  135.2160 O.2   240  ARG240     -0.2867
    107  CB       -69.1900   57.8100  136.3420 C.3   240  ARG240      0.0307
    108  CG       -68.4490   58.4690  135.2230 C.3   240  ARG240      0.0489
    109  CD       -67.3870   59.3360  135.7620 C.3   240  ARG240      0.2205
    110  NE       -66.6710   60.0700  134.7490 N.pl3 240  ARG240     -0.0865
    111  CZ       -65.7060   59.5680  133.9860 C.cat 240  ARG240      0.5346
    112  NH1      -65.3340   58.2860  134.0770 N.pl3 240  ARG240      0.1354
    113  NH2      -65.1110   60.3500  133.1070 N.pl3 240  ARG240      0.1354
    114  N        -69.5480   54.3040  130.5010 N.3   242  HIS242     -0.1241
    115  CA       -69.5540   54.5460  129.0600 C.3   242  HIS242      0.1621
    116  C        -70.7550   53.8480  128.4180 C.2   242  HIS242      0.2264
    117  O        -71.3880   54.3920  127.5120 O.2   242  HIS242     -0.2867
    118  CB       -68.2880   54.0250  128.3750 C.3   242  HIS242      0.0745
    119  CG       -67.0100   54.5650  128.9320 C.ar  242  HIS242      0.0817
    120  ND1      -66.4450   54.0810  130.0910 N.ar  242  HIS242     -0.2268
    121  CD2      -66.1740   55.5260  128.4710 C.ar  242  HIS242      0.1154
    122  CE1      -65.3090   54.7190  130.3160 C.ar  242  HIS242      0.1986
    123  NE2      -65.1290   55.6130  129.3540 N.ar  242  HIS242     -0.2212
@<TRIPOS>BOND
     1   117   116    2
     2     4     3    2
     3   118   119    1
     4   118   115    1
     5   116   115    1
     6   121   119   ar
     7   121   123   ar
     8     3     2    1
     9   119   120   ar
    10   115   114    1
    11   123   122   ar
    12     7     5    1
    13     2     5    1
    14     2     1    1
    15   120   122   ar
    16     5     6    1
    17     6     8    1
    18    93    92    1
    19    91    90    2
    20    90    89    1
    21    92    89    1
    22   113   111    1
    23    94    95    1
    24    97    96    2
    25    12    11    2
    26    89    88    1
    27    13    14    1
    28    13    10    1
    29    96    95    1
    30    95    98    1
    31    15    14   ar
    32   111   112    1
    33   111   110    2
    34     9    10    1
    35    14    16   ar
    36    11    10    1
    37   110   109    1
    38   105   106    2
    39   105   104    1
    40    98    99    1
    41   108   109    1
    42   108   107    1
    43    99   100    1
    44   104   107    1
    45   104   103    1
    46   100   101    1
    47   101   102    1
    48    24    22   am
    49    32    30    1
    50    75    74   ar
    51    75    73   ar
    52    21    22    1
    53    21    18    1
    54    74    72   ar
    55    22    23    2
    56    20    19    2
    57    31    29    1
    58    86    87    2
    59    86    85    1
    60    30    29    1
    61    73    71   ar
    62    85    84    1
    63    17    18    1
    64    18    19    1
    65    72    70   ar
    66    29    26    1
    67    60    59    2
    68    71    70   ar
    69    70    69    1
    70    82    81    1
    71    25    26    1
    72    83    81    1
    73    26    27    1
    74    40    38    1
    75    59    58    1
    76    65    66    1
    77    81    80    1
    78    47    48    1
    79    47    46    1
    80    63    61    1
    81    66    69    1
    82    66    67    1
    83    27    28    2
    84    61    58    1
    85    61    62    1
    86    55    54   ar
    87    58    57    1
    88    38    37    1
    89    67    68    2
    90    37    39    1
    91    37    34    1
    92    80    77    1
    93    46    45    1
    94    62    64    1
    95    54    56   ar
    96    54    53    1
    97    78    77    1
    98    78    79    2
    99    45    42    1
   100    77    76    1
   101    36    35    2
   102    33    34    1
   103    34    35    1
   104    53    50    1
   105    42    41    1
   106    42    43    1
   107    50    51    1
   108    50    49    1
   109    43    44    2
   110    51    52    2
