@<TRIPOS>MOLECULE
tmp/1twzA00.pdb
 133 119 0 0 0
SMALL
GASTEIGER

@<TRIPOS>ATOM
      1  N        -81.5230   78.8330   98.9960 N.3    24  ILE24      -0.1245
      2  CA       -80.3500   79.6230   99.3460 C.3    24  ILE24       0.1561
      3  C        -79.8870   79.3290  100.7630 C.2    24  ILE24       0.2260
      4  O        -80.5070   79.7900  101.7260 O.2    24  ILE24      -0.2867
      5  CB       -80.6280   81.1230   99.1900 C.3    24  ILE24       0.0252
      6  CG1      -81.2720   81.3890   97.8550 C.3    24  ILE24       0.0019
      7  CG2      -79.3240   81.9200   99.2760 C.3    24  ILE24       0.0019
      8  CD1      -81.5970   82.8070   97.6950 C.3    24  ILE24       0.0001
      9  N        -70.2720   87.6980  100.2850 N.3    65  SER65      -0.1217
     10  CA       -71.5020   88.4010   99.8640 C.3    65  SER65       0.1889
     11  C        -71.3050   89.6260   98.9370 C.2    65  SER65       0.2288
     12  O        -72.2720   90.1720   98.3790 O.2    65  SER65      -0.2866
     13  CB       -72.3580   88.7760  101.0830 C.3    65  SER65       0.2089
     14  OG       -73.7090   88.9410  100.6870 O.3    65  SER65      -0.2183
     15  N        -71.7430   78.4470   95.1390 N.3    93  ASP93      -0.1239
     16  CA       -71.8880   79.8050   94.6360 C.3    93  ASP93       0.1674
     17  C        -70.6000   80.6190   94.8380 C.2    93  ASP93       0.2266
     18  O        -70.4390   81.3230   95.8320 O.2    93  ASP93      -0.2867
     19  CB       -73.0620   80.4860   95.3310 C.3    93  ASP93       0.1410
     20  CG       -73.3770   81.8620   94.7390 C.2    93  ASP93       0.3668
     21  OD1      -74.4630   82.4200   95.0470 O.co2  93  ASP93      -0.2456
     22  OD2      -72.5980   82.4670   93.9550 O.co2  93  ASP93      -0.2456
     23  N        -71.8300   77.4660   90.5050 N.3   112  ASN112     -0.1240
     24  CA       -72.7440   78.5800   90.3380 C.3   112  ASN112      0.1653
     25  C        -72.0140   79.9230   90.3270 C.2   112  ASN112      0.2266
     26  O        -71.6690   80.4820   91.3870 O.2   112  ASN112     -0.2867
     27  CB       -73.8230   78.5490   91.4180 C.3   112  ASN112      0.1155
     28  CG       -74.8130   79.6720   91.2620 C.2   112  ASN112      0.2627
     29  OD1      -74.8410   80.3190   90.2070 O.2   112  ASN112     -0.2716
     30  ND2      -75.6410   79.9240   92.2970 N.am  112  ASN112     -0.0877
     31  N        -71.5980   83.7800   89.3620 N.3   114  ILE114     -0.1245
     32  CA       -72.2840   85.0270   89.0800 C.3   114  ILE114      0.1561
     33  C        -71.5120   85.8850   88.0730 C.2   114  ILE114      0.2260
     34  O        -71.8790   87.0330   87.8200 O.2   114  ILE114     -0.2867
     35  CB       -72.5760   85.8150   90.3810 C.3   114  ILE114      0.0252
     36  CG1      -71.3410   85.8630   91.2860 C.3   114  ILE114      0.0019
     37  CG2      -73.7270   85.2100   91.1290 C.3   114  ILE114      0.0019
     38  CD1      -71.0250   87.2430   91.8530 C.3   114  ILE114      0.0001
     39  N        -73.5210   76.9650   86.3070 N.3   135  ILE135     -0.1245
     40  CA       -74.4860   78.0120   85.9830 C.3   135  ILE135      0.1561
     41  C        -73.7640   79.2930   85.5560 C.2   135  ILE135      0.2260
     42  O        -72.8490   79.7720   86.2360 O.2   135  ILE135     -0.2867
     43  CB       -75.4130   78.2660   87.1890 C.3   135  ILE135      0.0252
     44  CG1      -76.2130   77.0100   87.5050 C.3   135  ILE135      0.0019
     45  CG2      -76.3070   79.5050   86.9850 C.3   135  ILE135      0.0019
     46  CD1      -76.6670   76.9880   88.9560 C.3   135  ILE135      0.0001
     47  N        -74.2230   83.0680   84.9620 N.3   137  MET137     -0.1245
     48  CA       -75.1400   84.1810   85.2010 C.3   137  MET137      0.1570
     49  C        -74.7700   85.3430   84.2940 C.2   137  MET137      0.2261
     50  O        -73.5950   85.5100   83.9280 O.2   137  MET137     -0.2867
     51  CB       -75.1160   84.6140   86.6560 C.3   137  MET137      0.0387
     52  CG       -76.3780   85.3410   87.0790 C.3   137  MET137      0.0595
     53  SD       -76.2710   86.1650   88.6870 S.3   137  MET137     -0.1393
     54  CE       -75.0300   87.3840   88.2890 C.3   137  MET137      0.0692
     55  N        -78.6590   82.0510   83.3880 N.3   176  ASP176     -0.1239
     56  CA       -79.4040   82.8020   84.3780 C.3   176  ASP176      0.1674
     57  C        -79.3250   84.2500   83.9880 C.2   176  ASP176      0.2266
     58  O        -78.2360   84.7360   83.7360 O.2   176  ASP176     -0.2867
     59  CB       -78.7560   82.5500   85.7300 C.3   176  ASP176      0.1410
     60  CG       -79.2200   83.4700   86.7940 C.2   176  ASP176      0.3668
     61  OD1      -79.0670   83.0960   87.9590 O.co2 176  ASP176     -0.2456
     62  OD2      -79.7190   84.5810   86.6070 O.co2 176  ASP176     -0.2456
     63  N        -79.3740   86.8920   85.5930 N.3   178  GLY178     -0.1210
     64  CA       -78.7420   87.7410   86.5780 C.3   178  GLY178      0.1956
     65  C        -79.5550   88.9790   86.8450 C.2   178  GLY178      0.2611
     66  O        -79.0450   90.0950   86.7420 O.2   178  GLY178     -0.2717
     67  N        -80.8260   88.7850   87.1600 N.am  179  ILE179     -0.1979
     68  CA       -81.6760   89.8580   87.6730 C.3   179  ILE179      0.1595
     69  C        -81.0500   90.3790   88.9650 C.2   179  ILE179      0.2287
     70  O        -80.7360   89.6060   89.8940 O.2   179  ILE179     -0.2864
     71  CB       -83.0540   89.3040   88.0080 C.3   179  ILE179      0.0276
     72  CG1      -83.7650   88.7450   86.7530 C.3   179  ILE179      0.0022
     73  CG2      -83.8890   90.3550   88.6900 C.3   179  ILE179      0.0022
     74  CD1      -83.9720   89.7510   85.5600 C.3   179  ILE179      0.0001
     75  N        -78.2160   92.0080   89.0020 N.3   181  PHE181     -0.1241
     76  CA       -76.8380   92.4180   88.6960 C.3   181  PHE181      0.1605
     77  C        -76.7260   93.2930   87.4910 C.2   181  PHE181      0.2264
     78  O        -77.3190   92.9780   86.4550 O.2   181  PHE181     -0.2867
     79  CB       -75.9590   91.2210   88.5030 C.3   181  PHE181      0.0534
     80  CG       -75.8510   90.3950   89.7150 C.ar  181  PHE181     -0.0203
     81  CD1      -76.9310   89.6280   90.1220 C.ar  181  PHE181     -0.0042
     82  CD2      -74.6740   90.3860   90.4700 C.ar  181  PHE181     -0.0042
     83  CE1      -76.8280   88.8340   91.2600 C.ar  181  PHE181     -0.0003
     84  CE2      -74.5570   89.5940   91.6070 C.ar  181  PHE181     -0.0003
     85  CZ       -75.6210   88.8140   92.0150 C.ar  181  PHE181     -0.0000
     86  N        -82.0340   79.3150   84.9990 N.3   206  LEU206     -0.1245
     87  CA       -82.2960   79.5100   86.4230 C.3   206  LEU206      0.1561
     88  C        -82.6160   80.9800   86.7140 C.2   206  LEU206      0.2260
     89  O        -81.9820   81.8840   86.1860 O.2   206  LEU206     -0.2867
     90  CB       -81.0820   79.0990   87.2200 C.3   206  LEU206      0.0270
     91  CG       -81.0580   79.2270   88.7490 C.3   206  LEU206      0.0019
     92  CD1      -80.1590   78.1540   89.2270 C.3   206  LEU206      0.0001
     93  CD2      -80.5160   80.5550   89.2620 C.3   206  LEU206      0.0001
     94  N        -82.9870   83.9470   89.6490 N.3   208  GLY208     -0.1225
     95  CA       -82.6570   84.2990   91.0210 C.3   208  GLY208      0.1811
     96  C        -83.1130   85.6990   91.3470 C.2   208  GLY208      0.2280
     97  O        -82.4120   86.6520   91.0630 O.2   208  GLY208     -0.2866
     98  N        -85.0180   86.3040   94.4310 N.3   210  SER210     -0.1217
     99  CA       -85.4190   86.2720   95.8360 C.3   210  SER210      0.1889
    100  C        -85.0960   87.5320   96.6220 C.2   210  SER210      0.2288
    101  O        -83.9400   87.8920   96.8290 O.2   210  SER210     -0.2866
    102  CB       -84.7620   85.0840   96.5120 C.3   210  SER210      0.2089
    103  OG       -85.5110   84.7560   97.6570 O.3   210  SER210     -0.2183
    104  N        -84.7010   90.5430   96.1960 N.3   212  LYS212     -0.1245
    105  CA       -83.7980   91.5850   95.6960 C.3   212  LYS212      0.1561
    106  C        -84.3410   93.0330   95.7290 C.2   212  LYS212      0.2260
    107  O        -85.5550   93.2820   95.8840 O.2   212  LYS212     -0.2867
    108  CB       -83.3240   91.2070   94.3110 C.3   212  LYS212      0.0271
    109  CG       -82.8340   89.7520   94.2500 C.3   212  LYS212      0.0035
    110  CD       -81.8030   89.5420   93.1630 C.3   212  LYS212      0.0206
    111  CE       -81.1350   88.2450   93.2640 C.3   212  LYS212      0.1093
    112  NZ       -80.0730   88.2790   92.2640 N.3   212  LYS212     -0.1314
    113  N        -84.0730   80.2830   92.3580 N.3   246  ARG246     -0.1245
    114  CA       -83.1830   80.3730   93.4760 C.3   246  ARG246      0.1563
    115  C        -83.8440   81.2320   94.5160 C.2   246  ARG246      0.2260
    116  O        -84.0720   82.4210   94.3070 O.2   246  ARG246     -0.2867
    117  CB       -81.8990   81.0160   93.0370 C.3   246  ARG246      0.0307
    118  CG       -80.8120   80.9300   94.0620 C.3   246  ARG246      0.0489
    119  CD       -79.5550   81.6020   93.5930 C.3   246  ARG246      0.2205
    120  NE       -78.5940   81.7430   94.6730 N.pl3 246  ARG246     -0.0865
    121  CZ       -78.5510   82.7820   95.4930 C.cat 246  ARG246      0.5346
    122  NH1      -79.4230   83.7860   95.3470 N.pl3 246  ARG246      0.1354
    123  NH2      -77.6130   82.8220   96.4360 N.pl3 246  ARG246      0.1354
    124  N        -84.9680   82.1390   98.8360 N.3   248  HIS248     -0.1241
    125  CA       -84.8540   82.0660  100.2960 C.3   248  HIS248      0.1621
    126  C        -86.0130   81.3070  100.9340 C.2   248  HIS248      0.2264
    127  O        -85.8060   80.3960  101.7230 O.2   248  HIS248     -0.2867
    128  CB       -84.7880   83.4560  100.9040 C.3   248  HIS248      0.0745
    129  CG       -83.5760   84.2410  100.5070 C.ar  248  HIS248      0.0817
    130  ND1      -83.5380   85.0430   99.3830 N.ar  248  HIS248     -0.2268
    131  CD2      -82.3620   84.3610  101.0930 C.ar  248  HIS248      0.1154
    132  CE1      -82.3590   85.6290   99.2980 C.ar  248  HIS248      0.1986
    133  NE2      -81.6210   85.2260  100.3200 N.ar  248  HIS248     -0.2212
@<TRIPOS>BOND
     1    55    56    1
     2    58    57    2
     3    50    49    2
     4    57    56    1
     5    49    48    1
     6    56    59    1
     7    47    48    1
     8    86    87    1
     9    48    51    1
    10    41    40    1
    11    41    42    2
    12    74    72    1
    13    63    64    1
    14    59    60    1
    15    40    39    1
    16    40    43    1
    17    89    88    2
    18    87    88    1
    19    87    90    1
    20    78    77    2
    21    64    65    1
    22    62    60   ar
    23    51    52    1
    24    66    65    2
    25    72    71    1
    26    60    61   ar
    27    65    67   am
    28    45    43    1
    29    52    53    1
    30    67    68    1
    31    43    44    1
    32    90    91    1
    33    77    76    1
    34    44    46    1
    35    68    71    1
    36    68    69    1
    37    34    33    2
    38    71    73    1
    39    33    32    1
    40    54    53    1
    41    79    76    1
    42    79    80    1
    43    76    75    1
    44    91    92    1
    45    91    93    1
    46    69    70    2
    47    32    31    1
    48    32    35    1
    49    94    95    1
    50    80    81   ar
    51    80    82   ar
    52    81    83   ar
    53    29    28    2
    54    25    24    1
    55    25    26    2
    56    24    23    1
    57    24    27    1
    58    35    37    1
    59    35    36    1
    60    82    84   ar
    61    95    96    1
    62    97    96    2
    63    83    85   ar
    64    28    27    1
    65    28    30   am
    66    36    38    1
    67    84    85   ar
    68   112   111    1
    69   113   114    1
    70   117   114    1
    71   117   118    1
    72   110   111    1
    73   110   109    1
    74   114   115    1
    75   119   118    1
    76   119   120    1
    77    22    20   ar
    78   109   108    1
    79   116   115    2
    80   108   105    1
    81    98    99    1
    82    16    17    1
    83    16    15    1
    84    16    19    1
    85   120   121    2
    86    20    21   ar
    87    20    19    1
    88    17    18    2
    89   122   121    1
    90   121   123    1
    91   105   106    1
    92   105   104    1
    93   106   107    2
    94    99   102    1
    95    99   100    1
    96   102   103    1
    97   100   101    2
    98     8     6    1
    99     6     5    1
   100    12    11    2
   101   124   125    1
   102    11    10    1
   103     1     2    1
   104     5     7    1
   105     5     2    1
   106   132   130   ar
   107   132   133   ar
   108     2     3    1
   109   130   129   ar
   110    10     9    1
   111    10    13    1
   112   125   128    1
   113   125   126    1
   114   133   131   ar
   115   129   128    1
   116   129   131   ar
   117    14    13    1
   118     3     4    2
   119   126   127    2
