@<TRIPOS>MOLECULE
tmp/1tx0B00.pdb
 148 138 0 0 0
SMALL
GASTEIGER

@<TRIPOS>ATOM
      1  N        -65.6220   67.4590  134.2830 N.3    88  ASP88      -0.1239
      2  CA       -64.5550   66.6200  134.8130 C.3    88  ASP88       0.1674
      3  C        -63.2080   67.3490  134.7290 C.2    88  ASP88       0.2266
      4  O        -62.4960   67.2090  133.7420 O.2    88  ASP88      -0.2867
      5  CB       -64.5270   65.3220  134.0030 C.3    88  ASP88       0.1410
      6  CG       -63.6330   64.2720  134.6140 C.2    88  ASP88       0.3668
      7  OD1      -63.7810   63.0730  134.2500 O.co2  88  ASP88      -0.2456
      8  OD2      -62.7530   64.5390  135.4730 O.co2  88  ASP88      -0.2456
      9  N        -66.5520   67.7310  139.0130 N.3   107  ASN107     -0.1240
     10  CA       -66.0340   66.4030  139.1140 C.3   107  ASN107      0.1653
     11  C        -64.5150   66.4210  139.2300 C.2   107  ASN107      0.2266
     12  O        -63.7990   66.3940  138.2320 O.2   107  ASN107     -0.2867
     13  CB       -66.4620   65.5310  137.9240 C.3   107  ASN107      0.1155
     14  CG       -66.1420   64.0780  138.1680 C.2   107  ASN107      0.2627
     15  OD1      -65.9100   63.7000  139.3170 O.2   107  ASN107     -0.2716
     16  ND2      -66.1030   63.2640  137.1270 N.am  107  ASN107     -0.0877
     17  N        -61.0110   64.9790  140.1870 N.3   109  ILE109     -0.1245
     18  CA       -60.1560   63.8300  140.4650 C.3   109  ILE109      0.1561
     19  C        -59.0300   64.0970  141.4780 C.2   109  ILE109      0.2260
     20  O        -58.3190   63.1610  141.8570 O.2   109  ILE109     -0.2867
     21  CB       -59.5640   63.1880  139.1570 C.3   109  ILE109      0.0252
     22  CG1      -58.3640   64.0000  138.6140 C.3   109  ILE109      0.0019
     23  CG2      -60.6370   63.0020  138.0940 C.3   109  ILE109      0.0019
     24  CD1      -57.5550   63.3000  137.5120 C.3   109  ILE109      0.0001
     25  N        -67.8060   66.6430  143.3130 N.3   130  ILE130     -0.1245
     26  CA       -67.4090   65.2740  143.5750 C.3   130  ILE130      0.1561
     27  C        -65.9480   65.3010  143.9500 C.2   130  ILE130      0.2260
     28  O        -65.1170   65.7770  143.1870 O.2   130  ILE130     -0.2867
     29  CB       -67.6740   64.3680  142.3530 C.3   130  ILE130      0.0252
     30  CG1      -69.1770   64.3380  142.0520 C.3   130  ILE130      0.0019
     31  CG2      -67.1710   62.9930  142.6120 C.3   130  ILE130      0.0019
     32  CD1      -69.5360   64.0030  140.6110 C.3   130  ILE130      0.0001
     33  N        -62.8950   63.1740  144.6240 N.3   132  MET132     -0.1245
     34  CA       -62.3680   61.8240  144.4240 C.3   132  MET132      0.1570
     35  C        -61.0780   61.5850  145.1960 C.2   132  MET132      0.2261
     36  O        -60.2560   62.4720  145.3380 O.2   132  MET132     -0.2867
     37  CB       -62.1560   61.5300  142.9490 C.3   132  MET132      0.0387
     38  CG       -61.6980   60.1150  142.7230 C.3   132  MET132      0.0595
     39  SD       -61.1660   59.8570  141.0580 S.3   132  MET132     -0.1393
     40  CE       -59.4370   60.2740  141.2630 C.3   132  MET132      0.0692
     41  N        -65.9270   59.7480  146.1360 N.3   171  ASP171     -0.1239
     42  CA       -65.5710   58.7790  145.1310 C.3   171  ASP171      0.1674
     43  C        -64.2670   58.1470  145.6160 C.2   171  ASP171      0.2266
     44  O        -63.3720   58.8600  146.0190 O.2   171  ASP171     -0.2867
     45  CB       -65.3750   59.4930  143.7850 C.3   171  ASP171      0.1410
     46  CG       -64.9790   58.5490  142.6460 C.2   171  ASP171      0.3668
     47  OD1      -65.4460   58.8050  141.5180 O.co2 171  ASP171     -0.2456
     48  OD2      -64.2000   57.5570  142.7320 O.co2 171  ASP171     -0.2456
     49  N        -61.1100   54.5370  142.1860 N.3   174  ILE174     -0.1231
     50  CA       -60.6140   53.2620  141.6700 C.3   174  ILE174      0.1692
     51  C        -59.7370   53.5440  140.4660 C.2   174  ILE174      0.2593
     52  O        -60.1260   54.3200  139.5770 O.2   174  ILE174     -0.2718
     53  CB       -61.7700   52.3340  141.3150 C.3   174  ILE174      0.0266
     54  CG1      -62.7190   52.1700  142.5260 C.3   174  ILE174      0.0019
     55  CG2      -61.2700   50.9620  141.0060 C.3   174  ILE174      0.0020
     56  CD1      -62.1300   51.3920  143.7660 C.3   174  ILE174      0.0001
     57  N        -58.5280   53.0010  140.4700 N.am  175  GLY175     -0.1942
     58  CA       -57.6400   53.1660  139.3450 C.3   175  GLY175      0.2014
     59  C        -56.6580   54.3000  139.5250 C.2   175  GLY175      0.2638
     60  O        -55.8420   54.5410  138.6480 O.2   175  GLY175     -0.2714
     61  N        -56.7370   54.9960  140.6590 N.am  176  PHE176     -0.1973
     62  CA       -55.7840   56.0660  140.9630 C.3   176  PHE176      0.1639
     63  C        -54.9950   55.7420  142.2380 C.2   176  PHE176      0.2290
     64  O        -55.5790   55.4060  143.2850 O.2   176  PHE176     -0.2864
     65  CB       -56.5010   57.4040  141.1480 C.3   176  PHE176      0.0560
     66  CG       -57.2690   57.8880  139.9360 C.ar  176  PHE176     -0.0200
     67  CD1      -58.5660   57.4060  139.6560 C.ar  176  PHE176     -0.0042
     68  CD2      -56.7450   58.8930  139.1170 C.ar  176  PHE176     -0.0042
     69  CE1      -59.2850   57.8800  138.5780 C.ar  176  PHE176     -0.0003
     70  CE2      -57.4800   59.3700  138.0380 C.ar  176  PHE176     -0.0003
     71  CZ       -58.7490   58.8590  137.7720 C.ar  176  PHE176     -0.0000
     72  N        -69.9050   58.0960  144.6450 N.3   201  LEU201     -0.1245
     73  CA       -69.9170   57.8270  143.2140 C.3   201  LEU201      0.1561
     74  C        -68.7950   56.7960  142.9780 C.2   201  LEU201      0.2260
     75  O        -67.6750   56.9770  143.4650 O.2   201  LEU201     -0.2867
     76  CB       -69.7060   59.1490  142.4180 C.3   201  LEU201      0.0270
     77  CG       -69.6190   59.0470  140.8880 C.3   201  LEU201      0.0019
     78  CD1      -69.8490   60.4040  140.3110 C.3   201  LEU201      0.0001
     79  CD2      -68.1950   58.5840  140.4520 C.3   201  LEU201      0.0001
     80  N        -66.5350   54.9580  140.0300 N.3   203  GLY203     -0.1225
     81  CA       -66.0710   54.8870  138.6510 C.3   203  GLY203      0.1811
     82  C        -65.0320   53.8160  138.3480 C.2   203  GLY203      0.2280
     83  O        -63.8870   53.9500  138.7080 O.2   203  GLY203     -0.2866
     84  N        -65.2810   51.9680  135.1610 N.3   205  SER205     -0.1202
     85  CA       -65.6050   51.5130  133.8110 C.3   205  SER205      0.2020
     86  C        -64.3520   51.2830  133.0130 C.2   205  SER205      0.2619
     87  O        -63.5440   52.1970  132.8780 O.2   205  SER205     -0.2717
     88  CB       -66.4530   52.5460  133.1080 C.3   205  SER205      0.2103
     89  OG       -66.9080   52.0350  131.8710 O.3   205  SER205     -0.2182
     90  N        -64.1970   50.0520  132.5210 N.am  206  ARG206     -0.1965
     91  CA       -63.1340   49.6430  131.5900 C.3   206  ARG206      0.1729
     92  C        -61.7180   49.8770  132.1120 C.2   206  ARG206      0.2616
     93  O        -60.7660   49.8880  131.3220 O.2   206  ARG206     -0.2715
     94  CB       -63.2760   50.4060  130.2590 C.3   206  ARG206      0.0348
     95  CG       -64.4530   50.0560  129.3760 C.3   206  ARG206      0.0492
     96  CD       -64.6550   51.0660  128.2640 C.3   206  ARG206      0.2205
     97  NE       -65.9110   50.9010  127.5230 N.pl3 206  ARG206     -0.0865
     98  CZ       -66.1620   51.4690  126.3440 C.cat 206  ARG206      0.5346
     99  NH1      -65.2580   52.2440  125.7600 N.pl3 206  ARG206      0.1354
    100  NH2      -67.3260   51.2850  125.7590 N.pl3 206  ARG206      0.1354
    101  N        -61.5530   50.0900  133.4140 N.am  207  LYS207     -0.1963
    102  CA       -60.2370   50.4030  133.9440 C.3   207  LYS207      0.1728
    103  C        -59.3490   49.1820  133.9500 C.2   207  LYS207      0.2617
    104  O        -59.8260   48.0630  133.8440 O.2   207  LYS207     -0.2715
    105  CB       -60.3340   51.0410  135.3210 C.3   207  LYS207      0.0311
    106  CG       -61.1370   52.2960  135.2800 C.3   207  LYS207      0.0038
    107  CD       -60.6680   53.3040  136.2830 C.3   207  LYS207      0.0206
    108  CE       -61.5350   54.5120  136.1860 C.3   207  LYS207      0.1093
    109  NZ       -61.7400   55.0920  137.5140 N.3   207  LYS207     -0.1314
    110  N        -58.0420   49.4090  134.0370 N.am  208  SER208     -0.1936
    111  CA       -57.0750   48.3200  133.8260 C.3   208  SER208      0.2055
    112  C        -57.0340   47.2220  134.8930 C.2   208  SER208      0.2643
    113  O        -56.6210   46.0950  134.5800 O.2   208  SER208     -0.2714
    114  CB       -55.6950   48.8850  133.5590 C.3   208  SER208      0.2130
    115  OG       -54.9780   49.0090  134.7410 O.3   208  SER208     -0.2179
    116  N        -57.4760   47.4990  136.1260 N.am  209  PHE209     -0.1973
    117  CA       -57.6110   46.4180  137.1120 C.3   209  PHE209      0.1639
    118  C        -58.5360   45.3000  136.6790 C.2   209  PHE209      0.2290
    119  O        -58.3380   44.1350  137.0590 O.2   209  PHE209     -0.2864
    120  CB       -57.9430   46.9280  138.5130 C.3   209  PHE209      0.0560
    121  CG       -59.4200   47.1850  138.7840 C.ar  209  PHE209     -0.0200
    122  CD1      -60.1190   46.3660  139.6560 C.ar  209  PHE209     -0.0042
    123  CD2      -60.0680   48.3050  138.2410 C.ar  209  PHE209     -0.0042
    124  CE1      -61.4410   46.6110  139.9650 C.ar  209  PHE209     -0.0003
    125  CE2      -61.4060   48.5680  138.5300 C.ar  209  PHE209     -0.0003
    126  CZ       -62.0990   47.7180  139.3960 C.ar  209  PHE209     -0.0000
    127  N        -63.9780   44.7680  128.3130 N.3   221  ARG221     -0.1245
    128  CA       -64.1380   44.9200  129.7610 C.3   221  ARG221      0.1563
    129  C        -65.5760   45.2150  130.2360 C.2   221  ARG221      0.2260
    130  O        -65.8060   45.7010  131.3490 O.2   221  ARG221     -0.2867
    131  CB       -63.1720   45.9870  130.2770 C.3   221  ARG221      0.0307
    132  CG       -61.7650   45.4510  130.4250 C.3   221  ARG221      0.0489
    133  CD       -60.7200   46.4760  130.6400 C.3   221  ARG221      0.2205
    134  NE       -59.4200   45.9610  130.2120 N.pl3 221  ARG221     -0.0865
    135  CZ       -58.3270   46.7110  130.1720 C.cat 221  ARG221      0.5346
    136  NH1      -58.4190   47.9650  130.5550 N.pl3 221  ARG221      0.1354
    137  NH2      -57.1580   46.2310  129.7660 N.pl3 221  ARG221      0.1354
    138  N        -70.2780   55.8000  137.1850 N.3   241  ARG241     -0.1245
    139  CA       -69.7410   56.5890  136.0870 C.3   241  ARG241      0.1563
    140  C        -69.2770   55.5470  135.0900 C.2   241  ARG241      0.2260
    141  O        -68.3020   54.8360  135.3580 O.2   241  ARG241     -0.2867
    142  CB       -68.5420   57.3270  136.6370 C.3   241  ARG241      0.0307
    143  CG       -68.1510   58.5540  135.8960 C.3   241  ARG241      0.0489
    144  CD       -66.6960   58.7310  135.9320 C.3   241  ARG241      0.2205
    145  NE       -66.1920   59.6780  134.9850 N.pl3 241  ARG241     -0.0865
    146  CZ       -65.1900   59.4040  134.1700 C.cat 241  ARG241      0.5346
    147  NH1      -64.6460   58.1990  134.1900 N.pl3 241  ARG241      0.1354
    148  NH2      -64.7310   60.3320  133.3330 N.pl3 241  ARG241      0.1354
@<TRIPOS>BOND
     1   100    98    1
     2    99    98    1
     3    98    97    2
     4    97    96    1
     5    96    95    1
     6   127   128    1
     7    95    94    1
     8   128   129    1
     9   128   131    1
    10   137   135    1
    11   135   134    2
    12   135   136    1
    13   134   133    1
    14   129   130    2
    15    94    91    1
    16   131   132    1
    17   132   133    1
    18    93    92    2
    19    91    92    1
    20    91    90    1
    21    89    88    1
    22    92   101   am
    23    90    86   am
    24    87    86    2
    25    86    85    1
    26    88    85    1
    27   148   146    1
    28   101   102    1
    29   114   111    1
    30   114   115    1
    31     4     3    2
    32    85    84    1
    33   111   110    1
    34   111   112    1
    35   104   103    2
    36   102   103    1
    37   102   105    1
    38   103   110   am
    39     5     6    1
    40     5     2    1
    41   146   147    1
    42   146   145    2
    43     7     6   ar
    44     1     2    1
    45   113   112    2
    46     6     8   ar
    47     3     2    1
    48   112   116   am
    49   145   144    1
    50   140   141    2
    51   140   139    1
    52   106   105    1
    53   106   107    1
    54   143   144    1
    55   143   142    1
    56   139   142    1
    57   139   138    1
    58   116   117    1
    59   108   107    1
    60   108   109    1
    61   118   119    2
    62   118   117    1
    63   117   120    1
    64    16    14   am
    65    24    22    1
    66    71    70   ar
    67    71    69   ar
    68    13    14    1
    69    13    10    1
    70    70    68   ar
    71    23    21    1
    72    14    15    2
    73    12    11    2
    74   123   125   ar
    75   123   121   ar
    76    82    81    1
    77    82    83    2
    78   120   121    1
    79   125   126   ar
    80    69    67   ar
    81    22    21    1
    82    60    59    2
    83    81    80    1
    84   121   122   ar
    85     9    10    1
    86    10    11    1
    87    68    66   ar
    88    21    18    1
    89    58    59    1
    90    58    57    1
    91   126   124   ar
    92    59    61   am
    93    52    51    2
    94    67    66   ar
    95   122   124   ar
    96    66    65    1
    97    17    18    1
    98    78    77    1
    99    79    77    1
   100    18    19    1
   101    51    57   am
   102    51    50    1
   103    32    30    1
   104    61    62    1
   105    77    76    1
   106    62    65    1
   107    62    63    1
   108    55    53    1
   109    39    40    1
   110    39    38    1
   111    53    50    1
   112    53    54    1
   113    19    20    2
   114    47    46   ar
   115    50    49    1
   116    30    29    1
   117    63    64    2
   118    29    31    1
   119    29    26    1
   120    76    73    1
   121    54    56    1
   122    46    48   ar
   123    46    45    1
   124    38    37    1
   125    37    34    1
   126    74    73    1
   127    74    75    2
   128    28    27    2
   129    73    72    1
   130    25    26    1
   131    26    27    1
   132    45    42    1
   133    34    33    1
   134    34    35    1
   135    42    43    1
   136    42    41    1
   137    35    36    2
   138    43    44    2
