@<TRIPOS>MOLECULE
tmp/1tx2B00.pdb
 99 88 0 0 0
SMALL
GASTEIGER

@<TRIPOS>ATOM
      1  N        -66.1160   67.9580  134.4430 N.3    88  ASP88      -0.1239
      2  CA       -64.9980   67.1670  134.9220 C.3    88  ASP88       0.1674
      3  C        -63.7990   68.0750  134.8770 C.2    88  ASP88       0.2266
      4  O        -63.2350   68.3050  133.8060 O.2    88  ASP88      -0.2867
      5  CB       -64.8230   65.9480  134.0270 C.3    88  ASP88       0.1410
      6  CG       -63.4250   65.3490  134.0760 C.2    88  ASP88       0.3668
      7  OD1      -63.1150   64.5400  133.1620 O.co2  88  ASP88      -0.2456
      8  OD2      -62.6030   65.5850  134.9720 O.co2  88  ASP88      -0.2456
      9  N        -67.2760   68.0520  139.1020 N.3   107  ASN107     -0.1240
     10  CA       -66.7370   66.7270  139.3120 C.3   107  ASN107      0.1653
     11  C        -65.2180   66.8550  139.3610 C.2   107  ASN107      0.2266
     12  O        -64.5840   66.9990  138.3470 O.2   107  ASN107     -0.2867
     13  CB       -67.1930   65.7780  138.2090 C.3   107  ASN107      0.1155
     14  CG       -66.6460   64.3860  138.3620 C.2   107  ASN107      0.2627
     15  OD1      -66.2270   64.0000  139.4520 O.2   107  ASN107     -0.2716
     16  ND2      -66.6670   63.5990  137.2660 N.am  107  ASN107     -0.0877
     17  N        -61.6600   65.4020  140.2950 N.3   109  ILE109     -0.1245
     18  CA       -60.8380   64.2220  140.5450 C.3   109  ILE109      0.1561
     19  C        -59.7590   64.4750  141.6040 C.2   109  ILE109      0.2260
     20  O        -59.1070   63.5440  142.0020 O.2   109  ILE109     -0.2867
     21  CB       -60.1680   63.6390  139.2940 C.3   109  ILE109      0.0252
     22  CG1      -59.2220   64.6470  138.6410 C.3   109  ILE109      0.0019
     23  CG2      -61.1820   63.1280  138.2760 C.3   109  ILE109      0.0019
     24  CD1      -58.0890   63.9540  137.8270 C.3   109  ILE109      0.0001
     25  N        -68.5160   66.9760  143.5280 N.3   130  ILE130     -0.1245
     26  CA       -68.0800   65.6110  143.7650 C.3   130  ILE130      0.1561
     27  C        -66.5860   65.6940  144.1380 C.2   130  ILE130      0.2260
     28  O        -65.7520   66.2210  143.3840 O.2   130  ILE130     -0.2867
     29  CB       -68.2690   64.6870  142.5270 C.3   130  ILE130      0.0252
     30  CG1      -69.7520   64.5040  142.1530 C.3   130  ILE130      0.0019
     31  CG2      -67.6600   63.3110  142.7730 C.3   130  ILE130      0.0019
     32  CD1      -69.9670   64.3400  140.6890 C.3   130  ILE130      0.0001
     33  N        -63.5280   63.5850  144.8410 N.3   132  MET132     -0.1245
     34  CA       -63.0380   62.2420  144.6360 C.3   132  MET132      0.1570
     35  C        -61.7450   61.9910  145.4260 C.2   132  MET132      0.2261
     36  O        -60.9330   62.8660  145.5740 O.2   132  MET132     -0.2867
     37  CB       -62.7690   61.9700  143.1810 C.3   132  MET132      0.0387
     38  CG       -62.4720   60.4960  142.8920 C.3   132  MET132      0.0595
     39  SD       -61.9770   60.2180  141.1280 S.3   132  MET132     -0.1393
     40  CE       -60.2180   60.4800  141.2730 C.3   132  MET132      0.0692
     41  N        -66.5570   60.2350  146.4310 N.3   171  ASP171     -0.1239
     42  CA       -66.2520   59.2040  145.4550 C.3   171  ASP171      0.1674
     43  C        -64.9370   58.5400  145.8960 C.2   171  ASP171      0.2266
     44  O        -64.0070   59.2520  146.2010 O.2   171  ASP171     -0.2867
     45  CB       -66.1650   59.8510  144.0840 C.3   171  ASP171      0.1410
     46  CG       -65.7380   58.9290  142.9810 C.2   171  ASP171      0.3668
     47  OD1      -66.1250   59.2770  141.7960 O.co2 171  ASP171     -0.2456
     48  OD2      -65.0300   57.9090  143.1400 O.co2 171  ASP171     -0.2456
     49  N        -61.8150   54.9250  142.5260 N.3   174  ILE174     -0.1245
     50  CA       -61.3610   53.6240  142.0720 C.3   174  ILE174      0.1561
     51  C        -60.5710   53.8680  140.7980 C.2   174  ILE174      0.2260
     52  O        -60.9840   54.6490  139.9200 O.2   174  ILE174     -0.2867
     53  CB       -62.5290   52.6640  141.7530 C.3   174  ILE174      0.0252
     54  CG1      -63.4420   52.4500  142.9560 C.3   174  ILE174      0.0019
     55  CG2      -61.9750   51.3190  141.2590 C.3   174  ILE174      0.0019
     56  CD1      -62.8170   51.9490  144.2070 C.3   174  ILE174      0.0001
     57  N        -57.5400   55.3010  140.9250 N.3   176  PHE176     -0.1241
     58  CA       -56.6330   56.4240  141.1550 C.3   176  PHE176      0.1605
     59  C        -55.8420   56.1370  142.4090 C.2   176  PHE176      0.2264
     60  O        -56.4070   55.8530  143.4580 O.2   176  PHE176     -0.2867
     61  CB       -57.3290   57.7690  141.3290 C.3   176  PHE176      0.0534
     62  CG       -58.0230   58.2740  140.0880 C.ar  176  PHE176     -0.0203
     63  CD1      -59.2690   57.7670  139.7340 C.ar  176  PHE176     -0.0042
     64  CD2      -57.4210   59.2570  139.2570 C.ar  176  PHE176     -0.0042
     65  CE1      -59.9390   58.2200  138.6020 C.ar  176  PHE176     -0.0003
     66  CE2      -58.1080   59.7190  138.1100 C.ar  176  PHE176     -0.0003
     67  CZ       -59.3440   59.1710  137.7870 C.ar  176  PHE176     -0.0000
     68  N        -70.6970   58.5200  144.8520 N.3   201  LEU201     -0.1245
     69  CA       -70.6460   58.2060  143.4480 C.3   201  LEU201      0.1561
     70  C        -69.4940   57.2790  143.1880 C.2   201  LEU201      0.2260
     71  O        -68.3770   57.4700  143.6940 O.2   201  LEU201     -0.2867
     72  CB       -70.4830   59.4550  142.5830 C.3   201  LEU201      0.0270
     73  CG       -70.2690   59.3300  141.0910 C.3   201  LEU201      0.0019
     74  CD1      -70.9050   60.5500  140.4510 C.3   201  LEU201      0.0001
     75  CD2      -68.8260   59.1820  140.6810 C.3   201  LEU201      0.0001
     76  N        -67.1160   55.3540  140.2260 N.3   203  GLY203     -0.1225
     77  CA       -66.6150   55.3500  138.8440 C.3   203  GLY203      0.1811
     78  C        -65.6540   54.2150  138.5730 C.2   203  GLY203      0.2280
     79  O        -64.5260   54.2540  139.0460 O.2   203  GLY203     -0.2866
     80  N        -62.2100   50.2810  133.6660 N.3   207  LYS207     -0.1245
     81  CA       -60.9130   50.6010  134.2180 C.3   207  LYS207      0.1561
     82  C        -59.9560   49.4260  134.2150 C.2   207  LYS207      0.2260
     83  O        -60.3270   48.2460  134.0780 O.2   207  LYS207     -0.2867
     84  CB       -61.0080   51.2360  135.6060 C.3   207  LYS207      0.0271
     85  CG       -61.5350   52.6670  135.5240 C.3   207  LYS207      0.0035
     86  CD       -61.4860   53.3890  136.8360 C.3   207  LYS207      0.0206
     87  CE       -62.1550   54.7400  136.6750 C.3   207  LYS207      0.1093
     88  NZ       -62.3330   55.4900  137.8690 N.3   207  LYS207     -0.1314
     89  N        -70.8960   56.2610  137.4430 N.3   241  ARG241     -0.1245
     90  CA       -70.3670   56.9930  136.2990 C.3   241  ARG241      0.1563
     91  C        -69.8970   55.9470  135.2930 C.2   241  ARG241      0.2260
     92  O        -68.9770   55.1660  135.5600 O.2   241  ARG241     -0.2867
     93  CB       -69.2140   57.9080  136.7540 C.3   241  ARG241      0.0307
     94  CG       -68.4880   58.7000  135.6450 C.3   241  ARG241      0.0489
     95  CD       -67.3850   59.5990  136.1280 C.3   241  ARG241      0.2205
     96  NE       -66.6900   60.2810  135.0310 N.pl3 241  ARG241     -0.0865
     97  CZ       -65.7770   59.7400  134.2550 C.cat 241  ARG241      0.5346
     98  NH1      -65.3780   58.4850  134.4520 N.pl3 241  ARG241      0.1354
     99  NH2      -65.2360   60.4920  133.2790 N.pl3 241  ARG241      0.1354
@<TRIPOS>BOND
     1     7     6   ar
     2    99    97    1
     3    80    81    1
     4     4     3    2
     5     5     6    1
     6     5     2    1
     7     6     8   ar
     8    83    82    2
     9    82    81    1
    10    81    84    1
    11    97    98    1
    12    97    96    2
    13     1     2    1
    14     3     2    1
    15    96    95    1
    16    91    92    2
    17    91    90    1
    18    85    84    1
    19    85    86    1
    20    94    95    1
    21    94    93    1
    22    90    93    1
    23    90    89    1
    24    87    86    1
    25    87    88    1
    26    16    14   am
    27    67    66   ar
    28    67    65   ar
    29    24    22    1
    30    66    64   ar
    31    13    14    1
    32    13    10    1
    33    23    21    1
    34    12    11    2
    35    14    15    2
    36    78    77    1
    37    78    79    2
    38    65    63   ar
    39    22    21    1
    40    77    76    1
    41     9    10    1
    42    64    62   ar
    43    21    18    1
    44    10    11    1
    45    63    62   ar
    46    52    51    2
    47    62    61    1
    48    17    18    1
    49    74    73    1
    50    18    19    1
    51    75    73    1
    52    32    30    1
    53    51    50    1
    54    57    58    1
    55    73    72    1
    56    39    40    1
    57    39    38    1
    58    58    61    1
    59    58    59    1
    60    55    53    1
    61    19    20    2
    62    53    50    1
    63    53    54    1
    64    47    46   ar
    65    50    49    1
    66    30    29    1
    67    59    60    2
    68    29    31    1
    69    29    26    1
    70    72    69    1
    71    38    37    1
    72    54    56    1
    73    46    48   ar
    74    46    45    1
    75    37    34    1
    76    70    69    1
    77    70    71    2
    78    28    27    2
    79    69    68    1
    80    25    26    1
    81    26    27    1
    82    45    42    1
    83    34    33    1
    84    34    35    1
    85    35    36    2
    86    42    43    1
    87    42    41    1
    88    43    44    2
