@<TRIPOS>MOLECULE
tmp/1tx7A00.pdb
 132 130 0 0 0
SMALL
GASTEIGER

@<TRIPOS>ATOM
      1  N          7.2120   12.3850   42.4710 N.3    40  HIS40      -0.1241
      2  CA         6.2600   11.2930   42.4450 C.3    40  HIS40       0.1621
      3  C          5.1470   11.4680   41.3750 C.2    40  HIS40       0.2264
      4  O          4.3320   10.5950   41.1360 O.2    40  HIS40      -0.2867
      5  CB         5.7120   11.0350   43.8760 C.3    40  HIS40       0.0745
      6  CG         4.5750   11.9330   44.3200 C.ar   40  HIS40       0.0817
      7  ND1        4.7600   13.0270   45.1370 N.ar   40  HIS40      -0.2268
      8  CD2        3.2280   11.8060   44.1850 C.ar   40  HIS40       0.1154
      9  CE1        3.5910   13.5400   45.4870 C.ar   40  HIS40       0.1986
     10  NE2        2.6430   12.8170   44.9240 N.ar   40  HIS40      -0.2212
     11  N         10.0700    9.4990   49.9760 N.3    81  LEU81      -0.1245
     12  CA         9.6470   10.7540   49.3580 C.3    81  LEU81       0.1561
     13  C         10.6070   11.9090   49.6630 C.2    81  LEU81       0.2260
     14  O         10.2760   13.1020   49.5020 O.2    81  LEU81      -0.2867
     15  CB         8.1740   11.0800   49.6800 C.3    81  LEU81       0.0270
     16  CG         7.1270   10.1590   49.0230 C.3    81  LEU81       0.0019
     17  CD1        5.7600   10.6910   49.3270 C.3    81  LEU81       0.0001
     18  CD2        7.2970   10.1270   47.5420 C.3    81  LEU81       0.0001
     19  N         -6.7840   20.7310   54.2580 N.3   171  ASP171     -0.1225
     20  CA        -5.5470   20.1130   53.7820 C.3   171  ASP171      0.1805
     21  C         -5.5350   20.0150   52.2530 C.2   171  ASP171      0.2598
     22  O         -6.5480   20.2080   51.6050 O.2   171  ASP171     -0.2718
     23  CB        -5.5180   18.6730   54.3350 C.3   171  ASP171      0.1424
     24  CG        -4.1420   18.0280   54.3540 C.2   171  ASP171      0.3668
     25  OD1       -3.1380   18.6380   53.9710 O.co2 171  ASP171     -0.2456
     26  OD2       -4.1050   16.8510   54.7590 O.co2 171  ASP171     -0.2456
     27  N         -4.3790   19.7310   51.6860 N.am  172  SER172     -0.1938
     28  CA        -4.3700   19.3850   50.2670 C.3   172  SER172      0.2055
     29  C         -4.6550   17.8210   50.2220 C.2   172  SER172      0.2643
     30  O         -4.7540   17.1210   51.2760 O.2   172  SER172     -0.2714
     31  CB        -3.0320   19.7620   49.6490 C.3   172  SER172      0.2130
     32  OG        -1.9800   19.1460   50.3210 O.3   172  SER172     -0.2179
     33  N         -4.7640   17.2500   49.0240 N.am  173  CYS173     -0.1953
     34  CA        -5.1380   15.8530   48.9430 C.3   173  CYS173      0.1843
     35  C         -4.6770   15.3050   47.6080 C.2   173  CYS173      0.2625
     36  O         -4.0670   16.0200   46.8410 O.2   173  CYS173     -0.2714
     37  CB        -6.6590   15.7590   49.0660 C.3   173  CYS173      0.0997
     38  SG        -7.3770   14.1890   49.5860 S.3   173  CYS173     -0.0797
     39  N         -4.9640   14.0320   47.3720 N.am  174  GLN174     -0.1977
     40  CA        -4.6470   13.3050   46.1280 C.3   174  GLN174      0.1601
     41  C         -5.1460   14.1230   44.9120 C.2   174  GLN174      0.2287
     42  O         -6.3210   14.5150   44.8500 O.2   174  GLN174     -0.2864
     43  CB        -5.3300   11.9250   46.1800 C.3   174  GLN174      0.0394
     44  CG        -4.6330   10.9230   45.3000 C.3   174  GLN174      0.0908
     45  CD        -5.4060   10.5780   43.9910 C.2   174  GLN174      0.2608
     46  OE1       -5.3200   11.3020   42.9490 O.2   174  GLN174     -0.2717
     47  NE2       -6.1670    9.4590   44.0410 N.am  174  GLN174     -0.0878
     48  N         -1.1820   16.8920   44.3490 N.3   177  SER177     -0.1217
     49  CA         0.2500   16.5500   44.3300 C.3   177  SER177      0.1889
     50  C          1.0230   17.2760   43.2430 C.2   177  SER177      0.2288
     51  O          0.5450   17.3800   42.1140 O.2   177  SER177     -0.2866
     52  CB         0.4460   15.0180   44.1520 C.3   177  SER177      0.2089
     53  OG        -0.7170   14.3590   44.6170 O.3   177  SER177     -0.2183
     54  N          3.3080   20.3330   46.9200 N.3   191  VAL191     -0.1231
     55  CA         2.3950   19.3610   47.5440 C.3   191  VAL191      0.1692
     56  C          3.0260   17.9560   47.4070 C.2   191  VAL191      0.2593
     57  O          3.2280   17.4240   46.2860 O.2   191  VAL191     -0.2718
     58  CB         1.0210   19.4280   46.8620 C.3   191  VAL191      0.0266
     59  CG1        0.1420   18.3950   47.5080 C.3   191  VAL191      0.0020
     60  CG2        0.4080   20.8750   47.0020 C.3   191  VAL191      0.0020
     61  N          3.3320   17.3220   48.5270 N.am  192  SER192     -0.1938
     62  CA         4.0580   16.0600   48.4370 C.3   192  SER192      0.2055
     63  C          3.3220   14.8520   49.0250 C.2   192  SER192      0.2643
     64  O          2.9670   13.9440   48.2850 O.2   192  SER192     -0.2714
     65  CB         5.4420   16.2760   49.0890 C.3   192  SER192      0.2130
     66  OG         6.2150   15.1050   49.0480 O.3   192  SER192     -0.2179
     67  N          3.1370   14.8000   50.3660 N.am  193  TRP193     -0.1959
     68  CA         2.4520   13.7030   50.9530 C.3   193  TRP193      0.1771
     69  C          1.7560   14.0140   52.2710 C.2   193  TRP193      0.2620
     70  O          1.7020   15.1390   52.6820 O.2   193  TRP193     -0.2715
     71  CB         3.4430   12.5580   51.1290 C.3   193  TRP193      0.0590
     72  CG         4.5700   12.8560   52.0960 C.ar  193  TRP193      0.0006
     73  CD1        5.7690   13.4670   51.8280 C.ar  193  TRP193      0.0946
     74  CD2        4.6450   12.4270   53.4570 C.ar  193  TRP193      0.0152
     75  NE1        6.5800   13.4310   52.9260 N.ar  193  TRP193     -0.2442
     76  CE2        5.9200   12.8000   53.9390 C.ar  193  TRP193      0.0810
     77  CE3        3.7490   11.7560   54.3130 C.ar  193  TRP193      0.0012
     78  CZ2        6.3280   12.5260   55.2440 C.ar  193  TRP193      0.0191
     79  CZ3        4.1570   11.4840   55.6230 C.ar  193  TRP193      0.0001
     80  CH2        5.4280   11.8640   56.0660 C.ar  193  TRP193      0.0015
     81  N          1.1510   12.9990   52.8840 N.am  194  GLY194     -0.1940
     82  CA         0.4800   13.2130   54.1850 C.3   194  GLY194      0.2014
     83  C         -0.2800   11.9140   54.5170 C.2   194  GLY194      0.2640
     84  O         -0.3400   11.1020   53.5840 O.2   194  GLY194     -0.2714
     85  N         -0.8200   11.6430   55.7250 N.am  195  SER195     -0.1935
     86  CA        -1.5940   10.3880   55.8770 C.3   195  SER195      0.2055
     87  C         -3.0660   10.6870   55.6600 C.2   195  SER195      0.2644
     88  O         -3.6580   11.3820   56.4950 O.2   195  SER195     -0.2714
     89  CB        -1.4380    9.7120   57.2360 C.3   195  SER195      0.2130
     90  OG        -0.6300   10.5710   57.9350 O.3   195  SER195     -0.2179
     91  N         -3.6530   10.1580   54.5710 N.am  196  GLY196     -0.1939
     92  CA        -5.0340   10.4620   54.2370 C.3   196  GLY196      0.2014
     93  C         -5.0240   11.9730   53.9650 C.2   196  GLY196      0.2639
     94  O         -3.9900   12.5240   53.5450 O.2   196  GLY196     -0.2714
     95  N         -6.1480   12.6470   54.1870 N.am  197  CYS197     -0.1967
     96  CA        -6.2640   14.1140   53.9780 C.3   197  CYS197      0.1712
     97  C         -7.1260   14.7340   55.0690 C.2   197  CYS197      0.2296
     98  O         -8.2050   14.2440   55.3960 O.2   197  CYS197     -0.2864
     99  CB        -6.9510   14.4350   52.6260 C.3   197  CYS197      0.0983
    100  SG        -6.1610   13.5880   51.2010 S.3   197  CYS197     -0.0798
    101  N         -2.5230   15.0970   61.3380 N.3   202  LYS202     -0.1245
    102  CA        -1.8320   14.5480   60.1630 C.3   202  LYS202      0.1561
    103  C         -1.8870   15.6260   59.1230 C.2   202  LYS202      0.2260
    104  O         -2.5590   15.4400   58.1060 O.2   202  LYS202     -0.2867
    105  CB        -2.5670   13.3000   59.6550 C.3   202  LYS202      0.0271
    106  CG        -2.2740   12.0740   60.5660 C.3   202  LYS202      0.0035
    107  CD        -0.7350   11.8910   60.7030 C.3   202  LYS202      0.0206
    108  CE        -0.3430   11.3240   62.0440 C.3   202  LYS202      0.1093
    109  NZ         0.4780   10.0720   61.8570 N.3   202  LYS202     -0.1314
    110  N         -0.4840   18.2710   56.0990 N.3   204  GLY204     -0.1210
    111  CA         0.1400   17.9660   54.8350 C.3   204  GLY204      0.1956
    112  C          1.6270   18.1670   54.9260 C.2   204  GLY204      0.2612
    113  O          2.0840   19.0230   55.6940 O.2   204  GLY204     -0.2717
    114  N          2.3890   17.3660   54.1740 N.am  205  VAL205     -0.1965
    115  CA         3.8650   17.4290   54.1310 C.3   205  VAL205      0.1727
    116  C          4.2420   17.9580   52.7330 C.2   205  VAL205      0.2616
    117  O          3.6890   17.5000   51.7370 O.2   205  VAL205     -0.2715
    118  CB         4.5330   16.0240   54.4030 C.3   205  VAL205      0.0290
    119  CG1        6.0880   16.1660   54.4690 C.3   205  VAL205      0.0023
    120  CG2        3.9610   15.4680   55.7280 C.3   205  VAL205      0.0023
    121  N          5.1620   18.9310   52.7140 N.am  206  TYR206     -0.1974
    122  CA         5.5230   19.6110   51.4970 C.3   206  TYR206      0.1639
    123  C          7.0070   19.5930   51.2110 C.2   206  TYR206      0.2290
    124  O          7.8380   19.6370   52.1200 O.2   206  TYR206     -0.2864
    125  CB         5.0180   21.0690   51.6640 C.3   206  TYR206      0.0560
    126  CG         3.5200   21.1340   51.7970 C.ar  206  TYR206     -0.0198
    127  CD1        2.7210   21.2010   50.6700 C.ar  206  TYR206     -0.0009
    128  CD2        2.8870   21.0320   53.0610 C.ar  206  TYR206     -0.0009
    129  CE1        1.3090   21.1610   50.7550 C.ar  206  TYR206      0.0417
    130  CE2        1.4950   20.9950   53.1690 C.ar  206  TYR206      0.0417
    131  CZ         0.7040   21.0540   52.0190 C.ar  206  TYR206      0.1957
    132  OH        -0.6780   20.9850   52.0260 O.3   206  TYR206     -0.2866
@<TRIPOS>BOND
     1     4     3    2
     2     3     2    1
     3    51    50    2
     4     2     1    1
     5     2     5    1
     6    46    45    2
     7    50    49    1
     8     5     6    1
     9    45    47   am
    10    45    44    1
    11    52    49    1
    12    52    53    1
    13     8     6   ar
    14     8    10   ar
    15     6     7   ar
    16    49    48    1
    17    42    41    2
    18    41    40    1
    19    10     9   ar
    20     7     9   ar
    21    44    43    1
    22    40    43    1
    23    40    39    1
    24    57    56    2
    25    36    35    2
    26    58    60    1
    27    58    59    1
    28    58    55    1
    29    54    55    1
    30    39    35   am
    31    56    55    1
    32    56    61   am
    33    18    16    1
    34    35    34    1
    35    64    63    2
    36    62    61    1
    37    62    63    1
    38    62    65    1
    39    34    33    1
    40    34    37    1
    41    16    17    1
    42    16    15    1
    43    33    29   am
    44    63    67   am
    45    66    65    1
    46    37    38    1
    47    12    13    1
    48    12    15    1
    49    12    11    1
    50    14    13    2
    51    38   100    1
    52    31    28    1
    53    31    32    1
    54    29    28    1
    55    29    30    2
    56    28    27    1
    57    67    68    1
    58   127   129   ar
    59   127   126   ar
    60   129   131   ar
    61    68    71    1
    62    68    69    1
    63    71    72    1
    64   100    99    1
    65   123   122    1
    66   123   124    2
    67   122   125    1
    68   122   121    1
    69    22    21    2
    70   125   126    1
    71    27    21   am
    72   117   116    2
    73   126   128   ar
    74    73    72   ar
    75    73    75   ar
    76   131   132    1
    77   131   130   ar
    78    72    74   ar
    79    21    20    1
    80    69    70    2
    81    69    81   am
    82    99    96    1
    83   121   116   am
    84   116   115    1
    85    81    82    1
    86    75    76   ar
    87   128   130   ar
    88    74    76   ar
    89    74    77   ar
    90    94    93    2
    91    84    83    2
    92    20    19    1
    93    20    23    1
    94    76    78   ar
    95    93    95   am
    96    93    92    1
    97    25    24   ar
    98    96    95    1
    99    96    97    1
   100   115   114    1
   101   115   118    1
   102   114   112   am
   103    82    83    1
   104    92    91    1
   105    77    79   ar
   106    23    24    1
   107    24    26   ar
   108   118   119    1
   109   118   120    1
   110    83    85   am
   111    91    87   am
   112   111   112    1
   113   111   110    1
   114   112   113    2
   115    97    98    2
   116    78    80   ar
   117    79    80   ar
   118    87    86    1
   119    87    88    2
   120    85    86    1
   121    86    89    1
   122    89    90    1
   123   104   103    2
   124   103   102    1
   125   105   102    1
   126   105   106    1
   127   102   101    1
   128   106   107    1
   129   107   108    1
   130   109   108    1
