@<TRIPOS>MOLECULE
tmp/1tx8A00.pdb
 139 139 0 0 0
SMALL
GASTEIGER

@<TRIPOS>ATOM
      1  N          7.2540   12.4300   42.4050 N.3    40  HIS40      -0.1241
      2  CA         6.3520   11.2810   42.3740 C.3    40  HIS40       0.1621
      3  C          5.2420   11.4260   41.3330 C.2    40  HIS40       0.2264
      4  O          4.4200   10.5250   41.1580 O.2    40  HIS40      -0.2867
      5  CB         5.7710   10.9750   43.7720 C.3    40  HIS40       0.0745
      6  CG         4.6350   11.8580   44.1900 C.ar   40  HIS40       0.0817
      7  ND1        4.8000   12.9340   45.0360 N.ar   40  HIS40      -0.2268
      8  CD2        3.3080   11.7840   43.9300 C.ar   40  HIS40       0.1154
      9  CE1        3.6240   13.4830   45.2820 C.ar   40  HIS40       0.1986
     10  NE2        2.7010   12.8040   44.6230 N.ar   40  HIS40      -0.2212
     11  N         10.0740    9.5810   49.9450 N.3    81  LEU81      -0.1245
     12  CA         9.6400   10.8150   49.2910 C.3    81  LEU81       0.1561
     13  C         10.5690   11.9900   49.5850 C.2    81  LEU81       0.2260
     14  O         10.1930   13.1510   49.4170 O.2    81  LEU81      -0.2867
     15  CB         8.1970   11.1640   49.6740 C.3    81  LEU81       0.0270
     16  CG         7.1360   10.2020   49.1210 C.3    81  LEU81       0.0019
     17  CD1        5.7460   10.6960   49.4920 C.3    81  LEU81       0.0001
     18  CD2        7.2690   10.1030   47.6050 C.3    81  LEU81       0.0001
     19  N         -6.8120   20.7900   54.2190 N.3   171  ASP171     -0.1225
     20  CA        -5.5520   20.1870   53.8040 C.3   171  ASP171      0.1805
     21  C         -5.5580   19.9920   52.2890 C.2   171  ASP171      0.2598
     22  O         -6.5920   20.1640   51.6420 O.2   171  ASP171     -0.2718
     23  CB        -5.4330   18.8340   54.5260 C.3   171  ASP171      0.1424
     24  CG        -4.0890   18.1550   54.3370 C.2   171  ASP171      0.3668
     25  OD1       -3.1180   18.8030   53.8950 O.co2 171  ASP171     -0.2456
     26  OD2       -4.0090   16.9500   54.6640 O.co2 171  ASP171     -0.2456
     27  N         -4.4010   19.6700   51.7170 N.am  172  SER172     -0.1938
     28  CA        -4.3340   19.3910   50.2870 C.3   172  SER172      0.2055
     29  C         -4.6490   17.9000   50.2180 C.2   172  SER172      0.2643
     30  O         -4.7560   17.2500   51.2570 O.2   172  SER172     -0.2714
     31  CB        -2.9390   19.6920   49.7220 C.3   172  SER172      0.2130
     32  OG        -1.9210   19.0540   50.4690 O.3   172  SER172     -0.2179
     33  N         -4.7930   17.3450   49.0220 N.am  173  CYS173     -0.1953
     34  CA        -5.1460   15.9330   48.9250 C.3   173  CYS173      0.1843
     35  C         -4.7020   15.3140   47.6020 C.2   173  CYS173      0.2625
     36  O         -3.9960   15.9390   46.8140 O.2   173  CYS173     -0.2714
     37  CB        -6.6650   15.8070   49.0970 C.3   173  CYS173      0.0997
     38  SG        -7.3380   14.1760   49.5620 S.3   173  CYS173     -0.0797
     39  N         -5.1190   14.0730   47.3780 N.am  174  GLN174     -0.1977
     40  CA        -4.7990   13.3460   46.1580 C.3   174  GLN174      0.1601
     41  C         -5.2530   14.1800   44.9700 C.2   174  GLN174      0.2287
     42  O         -6.4010   14.6230   44.9170 O.2   174  GLN174     -0.2864
     43  CB        -5.5330   12.0070   46.1570 C.3   174  GLN174      0.0394
     44  CG        -5.3430   11.2230   47.4420 C.3   174  GLN174      0.0908
     45  CD        -6.4670   10.2440   47.6940 C.2   174  GLN174      0.2608
     46  OE1       -6.7150    9.3460   46.8890 O.2   174  GLN174     -0.2717
     47  NE2       -7.1600   10.4150   48.8160 N.am  174  GLN174     -0.0878
     48  N         -1.1100   16.9180   44.2800 N.3   177  SER177     -0.1217
     49  CA         0.3230   16.6360   44.2170 C.3   177  SER177      0.1889
     50  C          1.0570   17.4220   43.1460 C.2   177  SER177      0.2288
     51  O          0.5660   17.5690   42.0310 O.2   177  SER177     -0.2866
     52  CB         0.5610   15.1480   43.9700 C.3   177  SER177      0.2089
     53  OG         0.2560   14.4060   45.1270 O.3   177  SER177     -0.2183
     54  N          3.3010   20.3710   46.8750 N.3   191  VAL191     -0.1231
     55  CA         2.4210   19.3910   47.5210 C.3   191  VAL191      0.1692
     56  C          3.0600   18.0160   47.3470 C.2   191  VAL191      0.2593
     57  O          3.2040   17.5270   46.2250 O.2   191  VAL191     -0.2718
     58  CB         1.0220   19.4000   46.8790 C.3   191  VAL191      0.0266
     59  CG1        0.1200   18.4000   47.5840 C.3   191  VAL191      0.0020
     60  CG2        0.4270   20.8060   46.9560 C.3   191  VAL191      0.0020
     61  N          3.4250   17.3840   48.4570 N.am  192  SER192     -0.1938
     62  CA         4.1060   16.0970   48.3910 C.3   192  SER192      0.2055
     63  C          3.3590   14.8970   48.9690 C.2   192  SER192      0.2643
     64  O          2.9830   13.9890   48.2300 O.2   192  SER192     -0.2714
     65  CB         5.4830   16.2220   49.0550 C.3   192  SER192      0.2130
     66  OG         6.2220   15.0160   48.9510 O.3   192  SER192     -0.2179
     67  N          3.1520   14.8750   50.2810 N.am  193  TRP193     -0.1959
     68  CA         2.4560   13.7470   50.8840 C.3   193  TRP193      0.1771
     69  C          1.7480   14.0520   52.1950 C.2   193  TRP193      0.2620
     70  O          1.6540   15.2000   52.6200 O.2   193  TRP193     -0.2715
     71  CB         3.4200   12.5680   51.0940 C.3   193  TRP193      0.0590
     72  CG         4.5700   12.8240   52.0400 C.ar  193  TRP193      0.0006
     73  CD1        5.7280   13.4900   51.7640 C.ar  193  TRP193      0.0946
     74  CD2        4.6810   12.3760   53.4000 C.ar  193  TRP193      0.0152
     75  NE1        6.5580   13.4810   52.8640 N.ar  193  TRP193     -0.2442
     76  CE2        5.9390   12.8040   53.8820 C.ar  193  TRP193      0.0810
     77  CE3        3.8380   11.6530   54.2570 C.ar  193  TRP193      0.0012
     78  CZ2        6.3780   12.5320   55.1840 C.ar  193  TRP193      0.0191
     79  CZ3        4.2770   11.3820   55.5560 C.ar  193  TRP193      0.0001
     80  CH2        5.5360   11.8210   56.0030 C.ar  193  TRP193      0.0015
     81  N          1.2350   12.9950   52.8160 N.am  194  GLY194     -0.1940
     82  CA         0.5350   13.1210   54.0790 C.3   194  GLY194      0.2014
     83  C         -0.2400   11.8400   54.3150 C.2   194  GLY194      0.2640
     84  O         -0.3870   11.0300   53.4000 O.2   194  GLY194     -0.2714
     85  N         -0.7280   11.6370   55.5320 N.am  195  SER195     -0.1935
     86  CA        -1.4970   10.4360   55.8260 C.3   195  SER195      0.2055
     87  C         -2.9690   10.7800   55.6600 C.2   195  SER195      0.2644
     88  O         -3.5530   11.4700   56.4970 O.2   195  SER195     -0.2714
     89  CB        -1.2240    9.9600   57.2520 C.3   195  SER195      0.2130
     90  OG        -1.8710    8.7230   57.4880 O.3   195  SER195     -0.2179
     91  N         -3.5660   10.2990   54.5750 N.am  196  GLY196     -0.1939
     92  CA        -4.9600   10.6060   54.3170 C.3   196  GLY196      0.2014
     93  C         -5.0500   12.0820   53.9830 C.2   196  GLY196      0.2639
     94  O         -4.0640   12.6700   53.5370 O.2   196  GLY196     -0.2714
     95  N         -6.2160   12.6830   54.1990 N.am  197  CYS197     -0.1967
     96  CA        -6.4070   14.1040   53.9170 C.3   197  CYS197      0.1712
     97  C         -7.2500   14.7700   54.9860 C.2   197  CYS197      0.2296
     98  O         -8.3130   14.2670   55.3460 O.2   197  CYS197     -0.2864
     99  CB        -7.1050   14.3010   52.5720 C.3   197  CYS197      0.0983
    100  SG        -6.2160   13.6080   51.1490 S.3   197  CYS197     -0.0798
    101  N         -2.5460   15.1300   61.4220 N.3   202  LYS202     -0.1231
    102  CA        -1.8480   14.6270   60.2410 C.3   202  LYS202      0.1678
    103  C         -1.8610   15.7030   59.1610 C.2   202  LYS202      0.2434
    104  O         -2.5520   15.5770   58.1500 O.2   202  LYS202     -0.2733
    105  CB        -2.5220   13.3550   59.7210 C.3   202  LYS202      0.0284
    106  CG        -2.3830   12.1530   60.6500 C.3   202  LYS202      0.0035
    107  CD        -0.9240   11.7480   60.8050 C.3   202  LYS202      0.0206
    108  CE        -0.7690   10.5480   61.7250 C.3   202  LYS202      0.1093
    109  NZ         0.6600   10.1720   61.8970 N.3   202  LYS202     -0.1314
    110  N         -1.0940   16.7830   59.3680 N.am  203  PRO203     -0.2718
    111  CA        -1.0390   17.8750   58.3930 C.3   203  PRO203      0.1535
    112  C         -0.3320   17.4650   57.1110 C.2   203  PRO203      0.2599
    113  O          0.3110   16.4190   57.0560 O.2   203  PRO203     -0.2715
    114  CB        -0.2810   18.9600   59.1470 C.3   203  PRO203      0.0310
    115  CG         0.6880   18.1670   59.9550 C.3   203  PRO203      0.0237
    116  CD        -0.1750   17.0400   60.4920 C.3   203  PRO203      0.0939
    117  N         -0.4570   18.2910   56.0780 N.am  204  GLY204     -0.1941
    118  CA         0.1970   17.9810   54.8210 C.3   204  GLY204      0.2014
    119  C          1.6970   18.2000   54.9000 C.2   204  GLY204      0.2639
    120  O          2.1670   19.0810   55.6240 O.2   204  GLY204     -0.2714
    121  N          2.4540   17.3860   54.1680 N.am  205  VAL205     -0.1963
    122  CA         3.9060   17.5070   54.1350 C.3   205  VAL205      0.1727
    123  C          4.2780   18.0300   52.7540 C.2   205  VAL205      0.2616
    124  O          3.7810   17.5440   51.7390 O.2   205  VAL205     -0.2715
    125  CB         4.5880   16.1540   54.3960 C.3   205  VAL205      0.0290
    126  CG1        6.1050   16.3300   54.4210 C.3   205  VAL205      0.0023
    127  CG2        4.0960   15.5890   55.7200 C.3   205  VAL205      0.0023
    128  N          5.1580   19.0240   52.7280 N.am  206  TYR206     -0.1974
    129  CA         5.5550   19.6750   51.4890 C.3   206  TYR206      0.1639
    130  C          7.0570   19.7000   51.2350 C.2   206  TYR206      0.2290
    131  O          7.8600   19.7430   52.1630 O.2   206  TYR206     -0.2864
    132  CB         5.0180   21.1080   51.5130 C.3   206  TYR206      0.0560
    133  CG         3.5140   21.1690   51.6630 C.ar  206  TYR206     -0.0198
    134  CD1        2.6850   21.1880   50.5430 C.ar  206  TYR206     -0.0009
    135  CD2        2.9180   21.1390   52.9250 C.ar  206  TYR206     -0.0009
    136  CE1        1.2980   21.1720   50.6740 C.ar  206  TYR206      0.0417
    137  CE2        1.5310   21.1180   53.0690 C.ar  206  TYR206      0.0417
    138  CZ         0.7290   21.1340   51.9390 C.ar  206  TYR206      0.1957
    139  OH        -0.6380   21.0960   52.0650 O.3   206  TYR206     -0.2866
@<TRIPOS>BOND
     1     4     3    2
     2     3     2    1
     3    51    50    2
     4     2     1    1
     5     2     5    1
     6    50    49    1
     7     5     6    1
     8     8     6   ar
     9     8    10   ar
    10    52    49    1
    11    52    53    1
    12     6     7   ar
    13    49    48    1
    14    10     9   ar
    15    42    41    2
    16    41    40    1
    17     7     9   ar
    18    43    40    1
    19    43    44    1
    20    40    39    1
    21    57    56    2
    22    36    35    2
    23    54    55    1
    24    58    60    1
    25    58    55    1
    26    58    59    1
    27    46    45    2
    28    56    55    1
    29    56    61   am
    30    39    35   am
    31    44    45    1
    32    35    34    1
    33    18    16    1
    34    45    47   am
    35    64    63    2
    36    62    61    1
    37    62    63    1
    38    62    65    1
    39    34    33    1
    40    34    37    1
    41    66    65    1
    42    63    67   am
    43    33    29   am
    44    37    38    1
    45    16    17    1
    46    16    15    1
    47    12    13    1
    48    12    15    1
    49    12    11    1
    50    14    13    2
    51    38   100    1
    52    31    28    1
    53    31    32    1
    54    29    28    1
    55    29    30    2
    56    67    68    1
    57    28    27    1
    58   134   136   ar
    59   134   133   ar
    60   136   138   ar
    61    68    71    1
    62    68    69    1
    63    71    72    1
    64   100    99    1
    65   130   129    1
    66   130   131    2
    67   129   132    1
    68   129   128    1
    69   132   133    1
    70    22    21    2
    71   133   135   ar
    72    27    21   am
    73   124   123    2
    74    73    72   ar
    75    73    75   ar
    76   138   139    1
    77   138   137   ar
    78    72    74   ar
    79    69    70    2
    80    69    81   am
    81    21    20    1
    82    99    96    1
    83   128   123   am
    84   123   122    1
    85    81    82    1
    86    75    76   ar
    87   135   137   ar
    88    84    83    2
    89    74    76   ar
    90    74    77   ar
    91    94    93    2
    92    20    19    1
    93    20    23    1
    94    76    78   ar
    95    25    24   ar
    96    96    95    1
    97    96    97    1
    98    93    95   am
    99    93    92    1
   100    82    83    1
   101   122   121    1
   102   122   125    1
   103   121   119   am
   104    77    79   ar
   105    83    85   am
   106    92    91    1
   107    24    23    1
   108    24    26   ar
   109   125   126    1
   110   125   127    1
   111    91    87   am
   112   118   119    1
   113   118   117    1
   114   119   120    2
   115    97    98    2
   116    78    80   ar
   117    85    86    1
   118    79    80   ar
   119    87    86    1
   120    87    88    2
   121    86    89    1
   122   117   112   am
   123   113   112    2
   124   112   111    1
   125    89    90    1
   126   104   103    2
   127   111   114    1
   128   111   110    1
   129   114   115    1
   130   103   110   am
   131   103   102    1
   132   110   116    1
   133   105   102    1
   134   105   106    1
   135   115   116    1
   136   102   101    1
   137   106   107    1
   138   107   108    1
   139   108   109    1
