@<TRIPOS>MOLECULE
tmp/1txcB02.pdb
 77 71 0 0 0
SMALL
GASTEIGER

@<TRIPOS>ATOM
      1  N         -4.8990   17.3500   30.0940 N.3    36  PRO36      -0.2102
      2  CA        -6.0430   17.3740   31.0100 C.3    36  PRO36       0.1504
      3  C         -7.3140   16.7270   30.4570 C.2    36  PRO36       0.2575
      4  O         -8.0810   16.1290   31.1990 O.2    36  PRO36      -0.2718
      5  CB        -6.2430   18.8670   31.2780 C.3    36  PRO36       0.0282
      6  CG        -4.8730   19.4340   31.0940 C.3    36  PRO36       0.0208
      7  CD        -4.3770   18.7080   29.8710 C.3    36  PRO36       0.0893
      8  N         -7.5320   16.8460   29.1530 N.am   37  ILE37      -0.1980
      9  CA        -8.7400   16.3110   28.5280 C.3    37  ILE37       0.1595
     10  C         -8.8760   14.7850   28.5330 C.2    37  ILE37       0.2287
     11  O         -8.0470   14.0720   27.9790 O.2    37  ILE37      -0.2864
     12  CB        -8.8700   16.8640   27.0900 C.3    37  ILE37       0.0276
     13  CG1       -9.0340   18.3880   27.1670 C.3    37  ILE37       0.0022
     14  CG2      -10.0610   16.2280   26.3770 C.3    37  ILE37       0.0022
     15  CD1       -9.0880   19.0850   25.8360 C.3    37  ILE37       0.0001
     16  N        -12.4730   16.7730   31.7700 N.3    57  ALA57      -0.1245
     17  CA       -11.0450   16.8250   32.0380 C.3    57  ALA57       0.1562
     18  C        -10.6810   16.5440   33.4860 C.2    57  ALA57       0.2260
     19  O        -11.4860   16.7330   34.3970 O.2    57  ALA57      -0.2867
     20  CB       -10.4900   18.1800   31.6340 C.3    57  ALA57       0.0290
     21  N         -8.6180   17.9180   36.1110 N.3    59  GLU59      -0.1245
     22  CA        -7.9550   19.1570   36.5060 C.3    59  GLU59       0.1567
     23  C         -6.8180   18.9180   37.4990 C.2    59  GLU59       0.2260
     24  O         -6.3870   19.8350   38.1970 O.2    59  GLU59      -0.2867
     25  CB        -8.9950   20.1040   37.1110 C.3    59  GLU59       0.0388
     26  CG        -8.5780   21.5560   37.2140 C.3    59  GLU59       0.1160
     27  CD        -9.5200   22.4760   36.4630 C.2    59  GLU59       0.3649
     28  OE1      -10.7500   22.2860   36.5730 O.co2  59  GLU59      -0.2457
     29  OE2       -9.0330   23.3940   35.7690 O.co2  59  GLU59      -0.2457
     30  N        -13.7900   18.0250   36.1720 N.3    64  SER64      -0.1217
     31  CA       -14.7260   19.0550   35.7480 C.3    64  SER64       0.1889
     32  C        -15.0640   18.8580   34.2740 C.2    64  SER64       0.2288
     33  O        -14.4430   18.0500   33.5880 O.2    64  SER64      -0.2866
     34  CB       -14.1130   20.4400   35.9470 C.3    64  SER64       0.2089
     35  OG       -12.9760   20.6090   35.1250 O.3    64  SER64      -0.2183
     36  N         -6.5760   32.8220   33.5330 N.3   134  ASP134     -0.1239
     37  CA        -6.6840   31.3680   33.5460 C.3   134  ASP134      0.1674
     38  C         -7.2140   30.8950   32.1940 C.2   134  ASP134      0.2266
     39  O         -6.7000   29.9370   31.6100 O.2   134  ASP134     -0.2867
     40  CB        -7.6410   30.9060   34.6480 C.3   134  ASP134      0.1410
     41  CG        -7.6970   29.3970   34.7700 C.2   134  ASP134      0.3668
     42  OD1       -8.8090   28.8370   34.8480 O.co2 134  ASP134     -0.2456
     43  OD2       -6.6230   28.7690   34.7900 O.co2 134  ASP134     -0.2456
     44  N         -4.6150   31.1480   29.6210 N.3   137  ALA137     -0.1231
     45  CA        -3.6190   30.1140   29.8610 C.3   137  ALA137      0.1694
     46  C         -4.0770   28.7520   29.3250 C.2   137  ALA137      0.2591
     47  O         -3.2750   27.9980   28.7760 O.2   137  ALA137     -0.2718
     48  CB        -3.3150   30.0200   31.3610 C.3   137  ALA137      0.0304
     49  N         -5.3570   28.4320   29.4820 N.am  138  LYS138     -0.1980
     50  CA        -5.8610   27.1520   28.9930 C.3   138  LYS138      0.1596
     51  C         -5.9540   27.1550   27.4670 C.2   138  LYS138      0.2287
     52  O         -5.6220   26.1650   26.8130 O.2   138  LYS138     -0.2864
     53  CB        -7.2370   26.8440   29.5900 C.3   138  LYS138      0.0298
     54  CG        -7.2630   26.6950   31.1160 C.3   138  LYS138      0.0038
     55  CD        -8.5400   25.9920   31.5690 C.3   138  LYS138      0.0206
     56  CE        -8.7910   26.1660   33.0580 C.3   138  LYS138      0.1093
     57  NZ        -7.5860   25.8250   33.8440 N.3   138  LYS138     -0.1314
     58  N         -2.5600   26.7290   26.1150 N.3   141  GLY141     -0.1210
     59  CA        -2.1000   25.3850   26.4030 C.3   141  GLY141      0.1956
     60  C         -2.6380   24.3880   25.3940 C.2   141  GLY141      0.2611
     61  O         -1.8930   23.5540   24.8820 O.2   141  GLY141     -0.2717
     62  N         -3.9360   24.4720   25.1090 N.am  142  PHE142     -0.1976
     63  CA        -4.5790   23.5690   24.1620 C.3   142  PHE142      0.1639
     64  C         -3.9930   23.7610   22.7640 C.2   142  PHE142      0.2290
     65  O         -3.6000   22.7960   22.1090 O.2   142  PHE142     -0.2864
     66  CB        -6.0940   23.8210   24.1570 C.3   142  PHE142      0.0560
     67  CG        -6.8600   22.9590   23.1890 C.ar  142  PHE142     -0.0200
     68  CD1       -7.1570   23.4180   21.9090 C.ar  142  PHE142     -0.0042
     69  CD2       -7.2780   21.6860   23.5540 C.ar  142  PHE142     -0.0042
     70  CE1       -7.8590   22.6180   21.0100 C.ar  142  PHE142     -0.0003
     71  CE2       -7.9790   20.8820   22.6620 C.ar  142  PHE142     -0.0003
     72  CZ        -8.2690   21.3490   21.3890 C.ar  142  PHE142     -0.0000
     73  N         -0.5230   22.4310   22.4200 N.3   145  ALA145     -0.1245
     74  CA        -0.5020   20.9770   22.5030 C.3   145  ALA145      0.1562
     75  C         -0.8020   20.4160   21.1180 C.2   145  ALA145      0.2260
     76  O         -0.1700   19.4520   20.6790 O.2   145  ALA145     -0.2867
     77  CB        -1.5420   20.4820   23.5080 C.3   145  ALA145      0.0290
@<TRIPOS>BOND
     1    76    75    2
     2    70    72   ar
     3    70    68   ar
     4    75    74    1
     5    72    71   ar
     6    68    67   ar
     7    65    64    2
     8    73    74    1
     9    74    77    1
    10    71    69   ar
    11    64    63    1
    12    67    69   ar
    13    67    66    1
    14    66    63    1
    15    63    62    1
    16    61    60    2
    17    62    60   am
    18    60    59    1
    19    15    13    1
    20    58    59    1
    21    14    12    1
    22    52    51    2
    23    12    13    1
    24    12     9    1
    25    51    50    1
    26    11    10    2
    27     9    10    1
    28     9     8    1
    29    47    46    2
    30    50    49    1
    31    50    53    1
    32     8     3   am
    33    46    49   am
    34    46    45    1
    35    53    54    1
    36    44    45    1
    37    45    48    1
    38     7     1    1
    39     7     6    1
    40     1     2    1
    41     3     2    1
    42     3     4    2
    43     2     5    1
    44     6     5    1
    45    54    55    1
    46    55    56    1
    47    39    38    2
    48    20    17    1
    49    16    17    1
    50    17    18    1
    51    38    37    1
    52    56    57    1
    53    18    19    2
    54    36    37    1
    55    37    40    1
    56    33    32    2
    57    32    31    1
    58    40    41    1
    59    41    43   ar
    60    41    42   ar
    61    35    34    1
    62    31    34    1
    63    31    30    1
    64    29    27   ar
    65    21    22    1
    66    27    28   ar
    67    27    26    1
    68    22    25    1
    69    22    23    1
    70    25    26    1
    71    23    24    2
