@<TRIPOS>MOLECULE
tmp/1txcB03.pdb
 166 156 0 0 0
SMALL
GASTEIGER

@<TRIPOS>ATOM
      1  N         -7.5320   16.8460   29.1530 N.3    37  ILE37      -0.1245
      2  CA        -8.7400   16.3110   28.5280 C.3    37  ILE37       0.1561
      3  C         -8.8760   14.7850   28.5330 C.2    37  ILE37       0.2260
      4  O         -8.0470   14.0720   27.9790 O.2    37  ILE37      -0.2867
      5  CB        -8.8700   16.8640   27.0900 C.3    37  ILE37       0.0252
      6  CG1       -9.0340   18.3880   27.1670 C.3    37  ILE37       0.0019
      7  CG2      -10.0610   16.2280   26.3770 C.3    37  ILE37       0.0019
      8  CD1       -9.0880   19.0850   25.8360 C.3    37  ILE37       0.0001
      9  N        -17.0580   18.2830   27.0850 N.3    55  ILE55      -0.1245
     10  CA       -15.6570   17.9580   27.2710 C.3    55  ILE55       0.1561
     11  C        -15.2930   17.7880   28.7410 C.2    55  ILE55       0.2260
     12  O        -15.4290   18.7120   29.5480 O.2    55  ILE55      -0.2867
     13  CB       -14.7650   19.0150   26.6240 C.3    55  ILE55       0.0252
     14  CG1      -15.2680   19.3050   25.2050 C.3    55  ILE55       0.0019
     15  CG2      -13.3430   18.5010   26.5510 C.3    55  ILE55       0.0019
     16  CD1      -14.4200   20.2870   24.4380 C.3    55  ILE55       0.0001
     17  N        -12.4730   16.7730   31.7700 N.3    57  ALA57      -0.1245
     18  CA       -11.0450   16.8250   32.0380 C.3    57  ALA57       0.1562
     19  C        -10.6810   16.5440   33.4860 C.2    57  ALA57       0.2260
     20  O        -11.4860   16.7330   34.3970 O.2    57  ALA57      -0.2867
     21  CB       -10.4900   18.1800   31.6340 C.3    57  ALA57       0.0290
     22  N         -8.6180   17.9180   36.1110 N.3    59  GLU59      -0.1245
     23  CA        -7.9550   19.1570   36.5060 C.3    59  GLU59       0.1567
     24  C         -6.8180   18.9180   37.4990 C.2    59  GLU59       0.2260
     25  O         -6.3870   19.8350   38.1970 O.2    59  GLU59      -0.2867
     26  CB        -8.9950   20.1040   37.1110 C.3    59  GLU59       0.0388
     27  CG        -8.5780   21.5560   37.2140 C.3    59  GLU59       0.1160
     28  CD        -9.5200   22.4760   36.4630 C.2    59  GLU59       0.3649
     29  OE1      -10.7500   22.2860   36.5730 O.co2  59  GLU59      -0.2457
     30  OE2       -9.0330   23.3940   35.7690 O.co2  59  GLU59      -0.2457
     31  N        -13.7900   18.0250   36.1720 N.3    64  SER64      -0.1202
     32  CA       -14.7260   19.0550   35.7480 C.3    64  SER64       0.2020
     33  C        -15.0640   18.8580   34.2740 C.2    64  SER64       0.2619
     34  O        -14.4430   18.0500   33.5880 O.2    64  SER64      -0.2717
     35  CB       -14.1130   20.4400   35.9470 C.3    64  SER64       0.2103
     36  OG       -12.9760   20.6090   35.1250 O.3    64  SER64      -0.2182
     37  N        -16.0460   19.6040   33.7850 N.am   65  PHE65      -0.1961
     38  CA       -16.4440   19.4930   32.3890 C.3    65  PHE65       0.1771
     39  C        -17.0790   20.7880   31.9130 C.2    65  PHE65       0.2619
     40  O        -17.5330   21.6010   32.7230 O.2    65  PHE65      -0.2715
     41  CB       -17.4400   18.3340   32.2090 C.3    65  PHE65       0.0574
     42  CG       -18.7900   18.5790   32.8380 C.ar   65  PHE65      -0.0200
     43  CD1      -19.7950   19.2190   32.1310 C.ar   65  PHE65      -0.0042
     44  CD2      -19.0420   18.1860   34.1510 C.ar   65  PHE65      -0.0042
     45  CE1      -21.0340   19.4710   32.7190 C.ar   65  PHE65      -0.0003
     46  CE2      -20.2690   18.4300   34.7490 C.ar   65  PHE65      -0.0003
     47  CZ       -21.2690   19.0750   34.0340 C.ar   65  PHE65      -0.0000
     48  N        -17.1000   20.9800   30.5960 N.am   66  VAL66      -0.1977
     49  CA       -17.7140   22.1640   30.0150 C.3    66  VAL66       0.1596
     50  C        -18.5240   21.7460   28.7990 C.2    66  VAL66       0.2287
     51  O        -18.2030   20.7550   28.1390 O.2    66  VAL66      -0.2864
     52  CB       -16.6670   23.2210   29.5400 C.3    66  VAL66       0.0276
     53  CG1      -15.7620   23.6240   30.6770 C.3    66  VAL66       0.0022
     54  CG2      -15.8570   22.6810   28.3780 C.3    66  VAL66       0.0022
     55  N        -19.5710   22.7670   25.1540 N.3    68  GLN68      -0.1245
     56  CA       -19.0910   23.6040   24.0650 C.3    68  GLN68       0.1566
     57  C        -20.1180   23.5950   22.9370 C.2    68  GLN68       0.2260
     58  O        -20.7010   22.5550   22.6200 O.2    68  GLN68      -0.2867
     59  CB       -17.7680   23.0480   23.5640 C.3    68  GLN68       0.0367
     60  CG       -16.9950   23.9550   22.6560 C.3    68  GLN68       0.0905
     61  CD       -15.7030   23.3050   22.1870 C.2    68  GLN68       0.2608
     62  OE1      -15.7110   22.4300   21.3150 O.2    68  GLN68      -0.2717
     63  NE2      -14.5850   23.7190   22.7780 N.am   68  GLN68      -0.0878
     64  N        -16.8160   29.1470   18.3200 N.3    82  TYR82      -0.1241
     65  CA       -17.5430   28.3060   19.2490 C.3    82  TYR82       0.1605
     66  C        -17.5430   28.9810   20.6030 C.2    82  TYR82       0.2264
     67  O        -16.8470   29.9780   20.8080 O.2    82  TYR82      -0.2867
     68  CB       -16.8820   26.9360   19.3690 C.3    82  TYR82       0.0534
     69  CG       -15.4900   27.0000   19.9250 C.ar   82  TYR82      -0.0201
     70  CD1      -14.4030   27.2980   19.1040 C.ar   82  TYR82      -0.0009
     71  CD2      -15.2570   26.7950   21.2810 C.ar   82  TYR82      -0.0009
     72  CE1      -13.1130   27.3870   19.6240 C.ar   82  TYR82       0.0417
     73  CE2      -13.9780   26.8840   21.8120 C.ar   82  TYR82       0.0417
     74  CZ       -12.9110   27.1780   20.9770 C.ar   82  TYR82       0.1957
     75  OH       -11.6480   27.2500   21.5050 O.3    82  TYR82      -0.2866
     76  N        -18.3170   28.3680   25.1770 N.3    84  ILE84      -0.1245
     77  CA       -18.5650   27.5520   26.3570 C.3    84  ILE84       0.1561
     78  C        -19.8420   28.1040   26.9720 C.2    84  ILE84       0.2260
     79  O        -19.8830   29.2520   27.4170 O.2    84  ILE84      -0.2867
     80  CB       -17.3810   27.6800   27.3460 C.3    84  ILE84       0.0252
     81  CG1      -16.0930   27.2470   26.6430 C.3    84  ILE84       0.0019
     82  CG2      -17.6210   26.8380   28.5880 C.3    84  ILE84       0.0019
     83  CD1      -14.8260   27.5890   27.4000 C.3    84  ILE84       0.0001
     84  N        -16.8690   23.4330   34.6580 N.3    89  GLY89      -0.1210
     85  CA       -15.5900   23.9990   34.2720 C.3    89  GLY89       0.1956
     86  C        -15.6890   25.4810   33.9560 C.2    89  GLY89       0.2612
     87  O        -14.6770   26.1650   33.8120 O.2    89  GLY89      -0.2717
     88  N        -16.9130   25.9800   33.8350 N.am   90  LEU90      -0.1966
     89  CA       -17.1330   27.3920   33.5480 C.3    90  LEU90       0.1713
     90  C        -17.2770   28.1500   34.8730 C.2    90  LEU90       0.2458
     91  O        -18.1410   27.8240   35.6830 O.2    90  LEU90      -0.2730
     92  CB       -18.4070   27.5630   32.7120 C.3    90  LEU90       0.0310
     93  CG       -18.7830   29.0050   32.3830 C.3    90  LEU90       0.0022
     94  CD1      -17.6670   29.6290   31.5610 C.3    90  LEU90       0.0001
     95  CD2      -20.0980   29.0450   31.6300 C.3    90  LEU90       0.0001
     96  N        -16.4320   29.1680   35.1080 N.am   91  PRO91      -0.2727
     97  CA       -16.4790   29.9610   36.3430 C.3    91  PRO91       0.1402
     98  C        -17.8630   30.5540   36.6200 C.2    91  PRO91       0.2269
     99  O        -18.5380   31.0210   35.7000 O.2    91  PRO91      -0.2865
    100  CB       -15.4330   31.0420   36.0970 C.3    91  PRO91       0.0296
    101  CG       -14.4550   30.3670   35.1960 C.3    91  PRO91       0.0237
    102  CD       -15.3560   29.6500   34.2260 C.3    91  PRO91       0.0939
    103  N        -19.0100   33.7660   35.2540 N.3    94  LEU94      -0.1245
    104  CA       -19.2690   33.7760   33.8160 C.3    94  LEU94       0.1561
    105  C        -20.5670   33.1150   33.3880 C.2    94  LEU94       0.2260
    106  O        -20.9750   32.0880   33.9200 O.2    94  LEU94      -0.2867
    107  CB       -18.1120   33.1240   33.0500 C.3    94  LEU94       0.0270
    108  CG       -16.7800   33.8740   33.0580 C.3    94  LEU94       0.0019
    109  CD1      -15.7980   33.1960   32.1000 C.3    94  LEU94       0.0001
    110  CD2      -17.0140   35.3230   32.6480 C.3    94  LEU94       0.0001
    111  N        -18.5810   32.1680   27.4010 N.3    97  LEU97      -0.1245
    112  CA       -17.2810   32.5750   26.8910 C.3    97  LEU97       0.1561
    113  C        -17.2140   32.1480   25.4310 C.2    97  LEU97       0.2260
    114  O        -17.2870   30.9580   25.1190 O.2    97  LEU97      -0.2867
    115  CB       -16.1680   31.9120   27.6960 C.3    97  LEU97       0.0270
    116  CG       -14.7210   32.2130   27.3030 C.3    97  LEU97       0.0019
    117  CD1      -14.5090   33.6990   27.0250 C.3    97  LEU97       0.0001
    118  CD2      -13.8380   31.7650   28.4380 C.3    97  LEU97       0.0001
    119  N        -15.4040   32.1820   21.4800 N.3    99  PHE99      -0.1241
    120  CA       -14.1440   32.1910   20.7530 C.3    99  PHE99       0.1605
    121  C        -14.4220   32.3740   19.2640 C.2    99  PHE99       0.2264
    122  O        -15.3170   31.7400   18.7080 O.2    99  PHE99      -0.2867
    123  CB       -13.3870   30.8710   20.9250 C.3    99  PHE99       0.0534
    124  CG       -13.0640   30.5240   22.3490 C.ar   99  PHE99      -0.0203
    125  CD1      -14.0400   30.0170   23.1950 C.ar   99  PHE99      -0.0042
    126  CD2      -11.7760   30.6970   22.8410 C.ar   99  PHE99      -0.0042
    127  CE1      -13.7380   29.6890   24.5110 C.ar   99  PHE99      -0.0003
    128  CE2      -11.4660   30.3730   24.1520 C.ar   99  PHE99      -0.0003
    129  CZ       -12.4460   29.8690   24.9870 C.ar   99  PHE99      -0.0000
    130  N         -6.5760   32.8220   33.5330 N.3   134  ASP134     -0.1225
    131  CA        -6.6840   31.3680   33.5460 C.3   134  ASP134      0.1805
    132  C         -7.2140   30.8950   32.1940 C.2   134  ASP134      0.2597
    133  O         -6.7000   29.9370   31.6100 O.2   134  ASP134     -0.2718
    134  CB        -7.6410   30.9060   34.6480 C.3   134  ASP134      0.1424
    135  CG        -7.6970   29.3970   34.7700 C.2   134  ASP134      0.3668
    136  OD1       -8.8090   28.8370   34.8480 O.co2 134  ASP134     -0.2456
    137  OD2       -6.6230   28.7690   34.7900 O.co2 134  ASP134     -0.2456
    138  N         -8.2460   31.5810   31.7060 N.am  135  ALA135     -0.1979
    139  CA        -8.8640   31.2560   30.4280 C.3   135  ALA135      0.1597
    140  C         -7.8480   31.3280   29.3000 C.2   135  ALA135      0.2287
    141  O         -7.7930   30.4500   28.4470 O.2   135  ALA135     -0.2864
    142  CB       -10.0150   32.2150   30.1460 C.3   135  ALA135      0.0319
    143  N         -5.3570   28.4320   29.4820 N.3   138  LYS138     -0.1231
    144  CA        -5.8610   27.1520   28.9930 C.3   138  LYS138      0.1693
    145  C         -5.9540   27.1550   27.4670 C.2   138  LYS138      0.2592
    146  O         -5.6220   26.1650   26.8130 O.2   138  LYS138     -0.2718
    147  CB        -7.2370   26.8440   29.5900 C.3   138  LYS138      0.0285
    148  CG        -7.2630   26.6950   31.1160 C.3   138  LYS138      0.0035
    149  CD        -8.5400   25.9920   31.5690 C.3   138  LYS138      0.0206
    150  CE        -8.7910   26.1660   33.0580 C.3   138  LYS138      0.1093
    151  NZ        -7.5860   25.8250   33.8440 N.3   138  LYS138     -0.1314
    152  N         -6.4050   28.2730   26.9050 N.am  139  GLY139     -0.1957
    153  CA        -6.5190   28.3800   25.4620 C.3   139  GLY139      0.1869
    154  C         -5.1730   28.1880   24.7860 C.2   139  GLY139      0.2309
    155  O         -5.0650   27.4600   23.7990 O.2   139  GLY139     -0.2863
    156  N         -3.9360   24.4720   25.1090 N.3   142  PHE142     -0.1241
    157  CA        -4.5790   23.5690   24.1620 C.3   142  PHE142      0.1605
    158  C         -3.9930   23.7610   22.7640 C.2   142  PHE142      0.2264
    159  O         -3.6000   22.7960   22.1090 O.2   142  PHE142     -0.2867
    160  CB        -6.0940   23.8210   24.1570 C.3   142  PHE142      0.0534
    161  CG        -6.8600   22.9590   23.1890 C.ar  142  PHE142     -0.0203
    162  CD1       -7.1570   23.4180   21.9090 C.ar  142  PHE142     -0.0042
    163  CD2       -7.2780   21.6860   23.5540 C.ar  142  PHE142     -0.0042
    164  CE1       -7.8590   22.6180   21.0100 C.ar  142  PHE142     -0.0003
    165  CE2       -7.9790   20.8820   22.6620 C.ar  142  PHE142     -0.0003
    166  CZ        -8.2690   21.3490   21.3890 C.ar  142  PHE142     -0.0000
@<TRIPOS>BOND
     1    64    65    1
     2   122   121    2
     3    70    72   ar
     4    70    69   ar
     5    65    68    1
     6    65    66    1
     7   121   120    1
     8    68    69    1
     9    72    74   ar
    10    69    71   ar
    11    66    67    2
    12   120   123    1
    13   120   119    1
    14   123   124    1
    15    74    75    1
    16    74    73   ar
    17   164   166   ar
    18   164   162   ar
    19    71    73   ar
    20    62    61    2
    21   166   165   ar
    22   162   161   ar
    23   159   158    2
    24    61    60    1
    25    61    63   am
    26   124   126   ar
    27   124   125   ar
    28    58    57    2
    29    60    59    1
    30   165   163   ar
    31   158   157    1
    32   126   128   ar
    33    57    56    1
    34   161   163   ar
    35   161   160    1
    36   125   127   ar
    37    59    56    1
    38   155   154    2
    39    56    55    1
    40   128   129   ar
    41   160   157    1
    42   157   156    1
    43    16    14    1
    44   127   129   ar
    45   154   153    1
    46   114   113    2
    47    76    77    1
    48    14    13    1
    49   113   112    1
    50   153   152    1
    51     8     6    1
    52    77    78    1
    53    77    80    1
    54     7     5    1
    55    15    13    1
    56    13    10    1
    57    81    80    1
    58    81    83    1
    59   146   145    2
    60   112   111    1
    61   112   115    1
    62   152   145   am
    63    78    79    2
    64   117   116    1
    65     9    10    1
    66     5     6    1
    67     5     2    1
    68    10    11    1
    69   116   115    1
    70   116   118    1
    71    80    82    1
    72   145   144    1
    73     4     3    2
    74    51    50    2
    75    54    52    1
    76   141   140    2
    77     2     3    1
    78     2     1    1
    79    11    12    2
    80    50    49    1
    81   144   143    1
    82   144   147    1
    83   140   139    1
    84    52    49    1
    85    52    53    1
    86   147   148    1
    87    49    48    1
    88   142   139    1
    89   139   138    1
    90    48    39   am
    91   148   149    1
    92    94    93    1
    93   149   150    1
    94   133   132    2
    95    95    93    1
    96    21    18    1
    97   138   132   am
    98    17    18    1
    99    39    38    1
   100    39    40    2
   101    18    19    1
   102   109   108    1
   103    43    45   ar
   104    43    42   ar
   105   132   131    1
   106    41    38    1
   107    41    42    1
   108    93    92    1
   109    38    37    1
   110   110   108    1
   111    92    89    1
   112    45    47   ar
   113    42    44   ar
   114   107   108    1
   115   107   104    1
   116   150   151    1
   117   105   104    1
   118   105   106    2
   119    19    20    2
   120   130   131    1
   121   131   134    1
   122    89    88    1
   123    89    90    1
   124    34    33    2
   125    37    33   am
   126    87    86    2
   127   104   103    1
   128    88    86   am
   129    86    85    1
   130    47    46   ar
   131    44    46   ar
   132   102    96    1
   133   102   101    1
   134    85    84    1
   135    33    32    1
   136   134   135    1
   137   135   137   ar
   138   135   136   ar
   139    90    96   am
   140    90    91    2
   141    96    97    1
   142    36    35    1
   143   101   100    1
   144    99    98    2
   145    32    35    1
   146    32    31    1
   147    30    28   ar
   148   100    97    1
   149    22    23    1
   150    97    98    1
   151    28    29   ar
   152    28    27    1
   153    23    26    1
   154    23    24    1
   155    26    27    1
   156    24    25    2
