@<TRIPOS>MOLECULE
tmp/1txzA00.pdb
 200 196 0 0 0
SMALL
GASTEIGER

@<TRIPOS>ATOM
      1  N         55.0140    7.1500   22.9800 N.3     7  CYS7       -0.1221
      2  CA        53.9190    6.8320   23.8870 C.3     7  CYS7        0.1808
      3  C         53.1160    5.6560   23.3580 C.2     7  CYS7        0.2601
      4  O         52.7490    5.6340   22.1800 O.2     7  CYS7       -0.2717
      5  CB        53.0130    8.0690   24.0300 C.3     7  CYS7        0.0970
      6  SG        51.5210    7.8750   25.0490 S.3     7  CYS7       -0.0800
      7  N         52.8460    4.6740   24.2170 N.am    8  ASP8       -0.1959
      8  CA        52.0660    3.5050   23.8100 C.3     8  ASP8        0.1840
      9  C         51.5300    2.7550   25.0250 C.2     8  ASP8        0.2623
     10  O         52.2060    2.6470   26.0470 O.2     8  ASP8       -0.2715
     11  CB        52.9190    2.5590   22.9630 C.3     8  ASP8        0.1450
     12  CG        52.0800    1.6450   22.0810 C.2     8  ASP8        0.3671
     13  OD1       52.1630    1.7960   20.8380 O.co2   8  ASP8       -0.2456
     14  OD2       51.3360    0.7880   22.6210 O.co2   8  ASP8       -0.2456
     15  N         50.3130    2.2370   24.9070 N.am    9  THR9       -0.1937
     16  CA        49.6940    1.5030   26.0000 C.3     9  THR9        0.2028
     17  C         50.2000    0.0670   26.1010 C.2     9  THR9        0.2642
     18  O         50.0730   -0.5610   27.1460 O.2     9  THR9       -0.2714
     19  CB        48.1590    1.4790   25.8540 C.3     9  THR9        0.1808
     20  OG1       47.8130    1.1840   24.4960 O.3     9  THR9       -0.2208
     21  CG2       47.5640    2.8190   26.2590 C.3     9  THR9        0.0379
     22  N         50.7720   -0.4510   25.0190 N.am   10  ASN10      -0.1971
     23  CA        51.2880   -1.8170   25.0160 C.3    10  ASN10       0.1688
     24  C         52.6960   -1.8240   25.6040 C.2    10  ASN10       0.2292
     25  O         53.6280   -1.2970   25.0010 O.2    10  ASN10      -0.2864
     26  CB        51.2990   -2.3650   23.5850 C.3    10  ASN10       0.1181
     27  CG        51.6250   -3.8510   23.5230 C.2    10  ASN10       0.2629
     28  OD1       51.4590   -4.4880   22.4810 O.2    10  ASN10      -0.2716
     29  ND2       52.0960   -4.4080   24.6360 N.am   10  ASN10      -0.0877
     30  N         55.5730   -2.9170   23.4700 N.3    13  VAL13      -0.1245
     31  CA        56.1080   -1.8990   22.5720 C.3    13  VAL13       0.1561
     32  C         57.0720   -0.9870   23.3270 C.2    13  VAL13       0.2260
     33  O         58.1770   -0.7190   22.8610 O.2    13  VAL13      -0.2867
     34  CB        54.9670   -1.0460   21.9550 C.3    13  VAL13       0.0252
     35  CG1       55.5460    0.1110   21.1570 C.3    13  VAL13       0.0019
     36  CG2       54.0900   -1.9260   21.0580 C.3    13  VAL13       0.0019
     37  N         51.5500    4.0550   28.5730 N.3    30  GLY30      -0.1210
     38  CA        50.2680    4.5260   29.0550 C.3    30  GLY30       0.1956
     39  C         49.4500    5.2050   27.9770 C.2    30  GLY30       0.2612
     40  O         49.9220    5.3730   26.8520 O.2    30  GLY30      -0.2717
     41  N         48.2280    5.6000   28.3240 N.am   31  HIS31      -0.1961
     42  CA        47.3250    6.2540   27.3810 C.3    31  HIS31       0.1787
     43  C         47.7890    7.6540   27.0140 C.2    31  HIS31       0.2620
     44  O         48.3760    8.3660   27.8300 O.2    31  HIS31      -0.2715
     45  CB        45.9020    6.3340   27.9540 C.3    31  HIS31       0.0785
     46  CG        45.2690    5.0010   28.2070 C.ar   31  HIS31       0.0821
     47  ND1       45.6910    4.1530   29.2090 N.ar   31  HIS31      -0.2267
     48  CD2       44.2460    4.3670   27.5870 C.ar   31  HIS31       0.1154
     49  CE1       44.9550    3.0560   29.1950 C.ar   31  HIS31       0.1986
     50  NE2       44.0710    3.1600   28.2200 N.ar   31  HIS31      -0.2212
     51  N         47.5220    8.0400   25.7710 N.am   32  LEU32      -0.1963
     52  CA        47.8900    9.3570   25.2860 C.3    32  LEU32       0.1728
     53  C         47.2030   10.4190   26.1340 C.2    32  LEU32       0.2616
     54  O         47.7940   11.4420   26.4640 O.2    32  LEU32      -0.2715
     55  CB        47.4520    9.5200   23.8300 C.3    32  LEU32       0.0311
     56  CG        47.6020   10.9190   23.2290 C.3    32  LEU32       0.0022
     57  CD1       49.0740   11.2480   23.0340 C.3    32  LEU32       0.0001
     58  CD2       46.8720   10.9770   21.9050 C.3    32  LEU32       0.0001
     59  N         45.9450   10.1690   26.4800 N.am   33  GLN33      -0.1977
     60  CA        45.1690   11.1200   27.2690 C.3    33  GLN33       0.1601
     61  C         45.8750   11.5370   28.5500 C.2    33  GLN33       0.2287
     62  O         45.9170   12.7190   28.8820 O.2    33  GLN33      -0.2864
     63  CB        43.7860   10.5450   27.6070 C.3    33  GLN33       0.0394
     64  CG        43.6640    9.0270   27.4760 C.3    33  GLN33       0.0908
     65  CD        43.5600    8.5690   26.0260 C.2    33  GLN33       0.2608
     66  OE1       42.6230    8.9340   25.3130 O.2    33  GLN33      -0.2717
     67  NE2       44.5210    7.7700   25.5860 N.am   33  GLN33      -0.0878
     68  N         49.0840    7.0050   13.3300 N.3    52  PRO52      -0.2102
     69  CA        49.0260    5.9990   12.2680 C.3    52  PRO52       0.1504
     70  C         47.5460    5.8190   11.9360 C.2    52  PRO52       0.2576
     71  O         46.7720    5.3580   12.7700 O.2    52  PRO52      -0.2718
     72  CB        49.6210    4.7630   12.9360 C.3    52  PRO52       0.0282
     73  CG        49.1550    4.9100   14.3670 C.3    52  PRO52       0.0208
     74  CD        49.4260    6.3850   14.6260 C.3    52  PRO52       0.0893
     75  N         47.1430    6.1970   10.7320 N.am   53  GLY53      -0.1943
     76  CA        45.7400    6.0670   10.3970 C.3    53  GLY53       0.2014
     77  C         45.4590    5.2200    9.1790 C.2    53  GLY53       0.2638
     78  O         46.2680    4.3650    8.8010 O.2    53  GLY53      -0.2714
     79  N         44.2920    5.4460    8.5820 N.am   54  ASN54      -0.1972
     80  CA        43.8930    4.7370    7.3790 C.3    54  ASN54       0.1688
     81  C         43.9460    5.7270    6.2320 C.2    54  ASN54       0.2292
     82  O         44.1120    6.9340    6.4460 O.2    54  ASN54      -0.2864
     83  CB        42.4850    4.1360    7.5380 C.3    54  ASN54       0.1181
     84  CG        41.4600    5.1460    8.0130 C.2    54  ASN54       0.2629
     85  OD1       40.9940    5.9810    7.2450 O.2    54  ASN54      -0.2716
     86  ND2       41.1070    5.0730    9.2890 N.am   54  ASN54      -0.0877
     87  N         39.5400    8.3810    8.7180 N.3    58  TYR58      -0.1241
     88  CA        38.5500    8.0810    9.7450 C.3    58  TYR58       0.1605
     89  C         39.3250    7.8220   11.0330 C.2    58  TYR58       0.2264
     90  O         40.4180    7.2670   10.9900 O.2    58  TYR58      -0.2867
     91  CB        37.7420    6.8420    9.3750 C.3    58  TYR58       0.0534
     92  CG        36.7410    7.0680    8.2750 C.ar   58  TYR58      -0.0201
     93  CD1       35.5690    7.7900    8.5050 C.ar   58  TYR58      -0.0009
     94  CD2       36.9490    6.5370    7.0050 C.ar   58  TYR58      -0.0009
     95  CE1       34.6210    7.9690    7.4920 C.ar   58  TYR58       0.0417
     96  CE2       36.0170    6.7110    5.9900 C.ar   58  TYR58       0.0417
     97  CZ        34.8580    7.4210    6.2370 C.ar   58  TYR58       0.1957
     98  OH        33.9450    7.5640    5.2230 O.3    58  TYR58      -0.2866
     99  N         38.1090    6.0370   13.8670 N.3    60  GLY60      -0.1210
    100  CA        37.3000    5.1340   14.6670 C.3    60  GLY60       0.1956
    101  C         37.9690    4.0710   15.5230 C.2    60  GLY60       0.2612
    102  O         37.2700    3.3280   16.2080 O.2    60  GLY60      -0.2717
    103  N         39.2950    3.9770   15.5110 N.am   61  GLY61      -0.1942
    104  CA        39.9300    2.9610   16.3320 C.3    61  GLY61       0.2014
    105  C         41.3880    3.2180   16.6660 C.2    61  GLY61       0.2639
    106  O         42.0130    4.1040   16.0880 O.2    61  GLY61      -0.2714
    107  N         41.9310    2.4370   17.5990 N.am   62  GLY62      -0.1939
    108  CA        43.3250    2.5800   17.9830 C.3    62  GLY62       0.2014
    109  C         43.7170    3.9620   18.4690 C.2    62  GLY62       0.2639
    110  O         42.9400    4.6500   19.1230 O.2    62  GLY62      -0.2714
    111  N         44.9390    4.3670   18.1450 N.am   63  PHE63      -0.1959
    112  CA        45.4580    5.6720   18.5420 C.3    63  PHE63       0.1771
    113  C         44.5670    6.7970   18.0100 C.2    63  PHE63       0.2619
    114  O         44.3080    7.7780   18.7120 O.2    63  PHE63      -0.2715
    115  CB        46.8770    5.8410   18.0020 C.3    63  PHE63       0.0574
    116  CG        47.6760    6.8960   18.7000 C.ar   63  PHE63      -0.0200
    117  CD1       48.1150    6.7040   20.0100 C.ar   63  PHE63      -0.0042
    118  CD2       48.0350    8.0700   18.0330 C.ar   63  PHE63      -0.0042
    119  CE1       48.9100    7.6620   20.6450 C.ar   63  PHE63      -0.0003
    120  CE2       48.8310    9.0370   18.6610 C.ar   63  PHE63      -0.0003
    121  CZ        49.2680    8.8300   19.9680 C.ar   63  PHE63      -0.0000
    122  N         44.1100    6.6580   16.7670 N.am   64  ASP64      -0.1971
    123  CA        43.2440    7.6740   16.1690 C.3    64  ASP64       0.1709
    124  C         42.0190    7.9270   17.0450 C.2    64  ASP64       0.2293
    125  O         41.5290    9.0530   17.1390 O.2    64  ASP64      -0.2864
    126  CB        42.7850    7.2560   14.7640 C.3    64  ASP64       0.1436
    127  CG        43.8290    7.5460   13.6920 C.2    64  ASP64       0.3671
    128  OD1       44.7000    8.4060   13.9250 O.co2  64  ASP64      -0.2456
    129  OD2       43.7640    6.9310   12.6090 O.co2  64  ASP64      -0.2456
    130  N         41.8850    7.8370   20.2670 N.3    66  ALA66      -0.1245
    131  CA        42.2660    8.6910   21.3930 C.3    66  ALA66       0.1562
    132  C         42.2290   10.1380   20.9080 C.2    66  ALA66       0.2260
    133  O         41.7770   11.0350   21.6140 O.2    66  ALA66      -0.2867
    134  CB        43.6640    8.3350   21.8880 C.3    66  ALA66       0.0290
    135  N         48.6740    3.9560    7.6190 N.3   118  THR118     -0.1203
    136  CA        49.4080    2.6970    7.7220 C.3   118  THR118      0.1994
    137  C         48.6020    1.5460    7.1160 C.2   118  THR118      0.2617
    138  O         49.1220    0.4570    6.8950 O.2   118  THR118     -0.2717
    139  CB        49.7320    2.3640    9.1870 C.3   118  THR118      0.1784
    140  OG1       48.5260    2.4100    9.9540 O.3   118  THR118     -0.2211
    141  CG2       50.7460    3.3770    9.7650 C.3   118  THR118      0.0376
    142  N         47.3200    1.7910    6.8640 N.am  119  VAL119     -0.1979
    143  CA        46.4510    0.7940    6.2500 C.3   119  VAL119      0.1595
    144  C         45.4500    1.5500    5.3880 C.2   119  VAL119      0.2287
    145  O         45.1370    2.7040    5.6750 O.2   119  VAL119     -0.2864
    146  CB        45.6430   -0.0260    7.2990 C.3   119  VAL119      0.0276
    147  CG1       46.5810   -0.6950    8.2900 C.3   119  VAL119      0.0022
    148  CG2       44.6530    0.8810    8.0180 C.3   119  VAL119      0.0022
    149  N         41.1230   -0.8450    8.0070 N.3   122  PRO122     -0.2116
    150  CA        41.3820   -1.9040    8.9890 C.3   122  PRO122      0.1372
    151  C         40.5150   -3.1530    8.8030 C.2   122  PRO122      0.2244
    152  O         39.9500   -3.6710    9.7630 O.2   122  PRO122     -0.2868
    153  CB        41.1020   -1.2060   10.3120 C.3   122  PRO122      0.0268
    154  CG        39.9400   -0.3210    9.9530 C.3   122  PRO122      0.0207
    155  CD        40.3670    0.2640    8.6150 C.3   122  PRO122      0.0892
    156  N         53.3880    7.0270   18.6350 N.3   161  PRO161     -0.2102
    157  CA        53.0320    5.7390   19.2300 C.3   161  PRO161      0.1504
    158  C         53.6620    4.6290   18.3810 C.2   161  PRO161      0.2576
    159  O         54.3880    4.9050   17.4160 O.2   161  PRO161     -0.2718
    160  CB        51.5160    5.7450   19.1390 C.3   161  PRO161      0.0282
    161  CG        51.2960    6.3840   17.7840 C.3   161  PRO161      0.0208
    162  CD        52.3020    7.5310   17.7710 C.3   161  PRO161      0.0893
    163  N         53.4080    3.3770   18.7440 N.am  162  GLY162     -0.1957
    164  CA        53.9350    2.2910   17.9420 C.3   162  GLY162      0.1869
    165  C         53.2370    2.4260   16.5950 C.2   162  GLY162      0.2309
    166  O         52.0620    2.7800   16.5430 O.2   162  GLY162     -0.2863
    167  N         51.8770    0.7250   13.0950 N.3   164  CYS164     -0.1221
    168  CA        51.4690   -0.5300   12.4670 C.3   164  CYS164      0.1808
    169  C         51.3440   -1.6750   13.4580 C.2   164  CYS164      0.2602
    170  O         51.0640   -2.8070   13.0640 O.2   164  CYS164     -0.2717
    171  CB        52.4690   -0.9360   11.3760 C.3   164  CYS164      0.0970
    172  SG        52.8510    0.3570   10.1760 S.3   164  CYS164     -0.0800
    173  N         51.5270   -1.3690   14.7390 N.am  165  THR165     -0.1939
    174  CA        51.4790   -2.3690   15.8050 C.3   165  THR165      0.2028
    175  C         50.1030   -2.6650   16.3860 C.2   165  THR165      0.2643
    176  O         49.9880   -3.4220   17.3560 O.2   165  THR165     -0.2714
    177  CB        52.4210   -1.9570   16.9640 C.3   165  THR165      0.1808
    178  OG1       52.2070   -0.5760   17.2940 O.3   165  THR165     -0.2208
    179  CG2       53.8690   -2.1430   16.5620 C.3   165  THR165      0.0379
    180  N         49.0650   -2.0730   15.8030 N.am  166  GLY166     -0.1939
    181  CA        47.7120   -2.2930   16.2900 C.3   166  GLY166      0.2014
    182  C         46.8870   -3.0210   15.2440 C.2   166  GLY166      0.2639
    183  O         47.0920   -4.2090   14.9910 O.2   166  GLY166     -0.2714
    184  N         45.9540   -2.3070   14.6240 N.am  167  TYR167     -0.1959
    185  CA        45.1210   -2.9010   13.5960 C.3   167  TYR167      0.1771
    186  C         45.9210   -3.3880   12.3890 C.2   167  TYR167      0.2619
    187  O         45.4970   -4.3100   11.7060 O.2   167  TYR167     -0.2715
    188  CB        44.0410   -1.9070   13.1470 C.3   167  TYR167      0.0574
    189  CG        42.9140   -1.7920   14.1360 C.ar  167  TYR167     -0.0198
    190  CD1       42.9620   -0.8730   15.1780 C.ar  167  TYR167     -0.0009
    191  CD2       41.8220   -2.6530   14.0700 C.ar  167  TYR167     -0.0009
    192  CE1       41.9460   -0.8190   16.1330 C.ar  167  TYR167      0.0417
    193  CE2       40.8090   -2.6090   15.0170 C.ar  167  TYR167      0.0417
    194  CZ        40.8740   -1.6930   16.0440 C.ar  167  TYR167      0.1957
    195  OH        39.8650   -1.6580   16.9850 O.3   167  TYR167     -0.2866
    196  N         47.0730   -2.7800   12.1220 N.am  168  ALA168     -0.1977
    197  CA        47.8850   -3.2140   10.9820 C.3   168  ALA168      0.1597
    198  C         48.4400   -4.6170   11.2400 C.2   168  ALA168      0.2287
    199  O         48.7760   -5.3420   10.3060 O.2   168  ALA168     -0.2864
    200  CB        49.0200   -2.2240   10.7200 C.3   168  ALA168      0.0319
@<TRIPOS>BOND
     1    98    97    1
     2   144   145    2
     3   144   143    1
     4    96    97   ar
     5    96    94   ar
     6    81    82    2
     7    81    80    1
     8    97    95   ar
     9   143   142    1
    10   143   146    1
    11   142   137   am
    12   138   137    2
    13    94    92   ar
    14   137   136    1
    15    85    84    2
    16   146   148    1
    17   146   147    1
    18    80    83    1
    19    80    79    1
    20    95    93   ar
    21    83    84    1
    22   135   136    1
    23   136   139    1
    24   149   155    1
    25   149   150    1
    26    84    86   am
    27    92    93   ar
    28    92    91    1
    29    79    77   am
    30   155   154    1
    31    87    88    1
    32    78    77    2
    33   151   150    1
    34   151   152    2
    35   150   153    1
    36    77    76    1
    37   139   141    1
    38   139   140    1
    39    91    88    1
    40    88    89    1
    41   154   153    1
    42   172   171    1
    43   199   198    2
    44    76    75    1
    45   200   197    1
    46    75    70   am
    47   197   198    1
    48   197   196    1
    49    90    89    2
    50   171   168    1
    51   187   186    2
    52    70    69    1
    53    70    71    2
    54   196   186   am
    55    69    72    1
    56    69    68    1
    57   186   185    1
    58   168   167    1
    59   168   169    1
    60   129   127   ar
    61    72    73    1
    62   170   169    2
    63   188   185    1
    64   188   189    1
    65    68    74    1
    66   169   173   am
    67   185   184    1
    68   127   128   ar
    69   127   126    1
    70    99   100    1
    71   191   189   ar
    72   191   193   ar
    73   189   190   ar
    74    73    74    1
    75   184   182   am
    76   100   101    1
    77   173   174    1
    78   126   123    1
    79   183   182    2
    80   193   194   ar
    81   190   192   ar
    82   182   181    1
    83   103   101   am
    84   103   104    1
    85   101   102    2
    86   180   181    1
    87   180   175   am
    88   174   175    1
    89   174   177    1
    90   194   192   ar
    91   194   195    1
    92   106   105    2
    93   123   122    1
    94   123   124    1
    95   104   105    1
    96   175   176    2
    97   166   165    2
    98   179   177    1
    99   165   164    1
   100   105   107   am
   101   122   113   am
   102   177   178    1
   103   124   125    2
   104   159   158    2
   105   107   108    1
   106   162   161    1
   107   162   156    1
   108   161   160    1
   109   164   163    1
   110   108   109    1
   111   115   112    1
   112   115   116    1
   113   113   112    1
   114   113   114    2
   115   118   120   ar
   116   118   116   ar
   117   111   109   am
   118   111   112    1
   119   158   163   am
   120   158   157    1
   121   109   110    2
   122   156   157    1
   123   120   121   ar
   124   116   117   ar
   125   160   157    1
   126   121   119   ar
   127   117   119   ar
   128   130   131    1
   129    13    12   ar
   130   132   131    1
   131   132   133    2
   132    36    34    1
   133    35    34    1
   134   131   134    1
   135    58    56    1
   136    34    31    1
   137    12    14   ar
   138    12    11    1
   139     4     3    2
   140    28    27    2
   141    31    32    1
   142    31    30    1
   143    33    32    2
   144    11     8    1
   145     1     2    1
   146    57    56    1
   147    56    55    1
   148     3     2    1
   149     3     7   am
   150    27    26    1
   151    27    29   am
   152    26    23    1
   153     8     7    1
   154     8     9    1
   155    55    52    1
   156     2     5    1
   157     5     6    1
   158    20    19    1
   159    15     9   am
   160    15    16    1
   161    25    24    2
   162    23    22    1
   163    23    24    1
   164    22    17   am
   165     9    10    2
   166    52    51    1
   167    52    53    1
   168    66    65    2
   169    67    65   am
   170    51    43   am
   171    19    16    1
   172    19    21    1
   173    16    17    1
   174    65    64    1
   175    17    18    2
   176    53    54    2
   177    53    59   am
   178    59    60    1
   179    40    39    2
   180    43    42    1
   181    43    44    2
   182    60    63    1
   183    60    61    1
   184    42    45    1
   185    42    41    1
   186    64    63    1
   187    48    46   ar
   188    48    50   ar
   189    45    46    1
   190    39    41   am
   191    39    38    1
   192    46    47   ar
   193    50    49   ar
   194    61    62    2
   195    37    38    1
   196    49    47   ar
