@<TRIPOS>MOLECULE
tmp/1ty8A00.pdb
 156 152 0 0 0
SMALL
GASTEIGER

@<TRIPOS>ATOM
      1  N         55.2360    6.2700   22.8790 N.3     7  CYS7       -0.1221
      2  CA        54.1420    5.9350   23.7850 C.3     7  CYS7        0.1808
      3  C         53.3410    4.7340   23.3080 C.2     7  CYS7        0.2601
      4  O         52.9660    4.6690   22.1470 O.2     7  CYS7       -0.2717
      5  CB        53.2080    7.1460   23.9190 C.3     7  CYS7        0.0970
      6  SG        51.6790    6.8370   24.8510 S.3     7  CYS7       -0.0800
      7  N         53.0710    3.7880   24.2040 N.am    8  ASP8       -0.1959
      8  CA        52.2900    2.6080   23.8370 C.3     8  ASP8        0.1840
      9  C         51.7810    1.9030   25.0910 C.2     8  ASP8        0.2623
     10  O         52.4420    1.9130   26.1260 O.2     8  ASP8       -0.2715
     11  CB        53.1380    1.6320   23.0190 C.3     8  ASP8        0.1450
     12  CG        52.3000    0.7610   22.0940 C.2     8  ASP8        0.3671
     13  OD1       52.3760    0.9580   20.8590 O.co2   8  ASP8       -0.2456
     14  OD2       51.5580   -0.1110   22.5960 O.co2   8  ASP8       -0.2456
     15  N         50.6080    1.2890   24.9870 N.am    9  THR9       -0.1937
     16  CA        50.0150    0.5680   26.1090 C.3     9  THR9        0.2028
     17  C         50.5490   -0.8590   26.1970 C.2     9  THR9        0.2642
     18  O         50.4520   -1.5030   27.2400 O.2     9  THR9       -0.2714
     19  CB        48.4800    0.5010   25.9790 C.3     9  THR9        0.1808
     20  OG1       48.1280    0.1240   24.6390 O.3     9  THR9       -0.2208
     21  CG2       47.8610    1.8420   26.3050 C.3     9  THR9        0.0379
     22  N         51.1080   -1.3460   25.0950 N.am   10  ASN10      -0.1971
     23  CA        51.6440   -2.7020   25.0300 C.3    10  ASN10       0.1688
     24  C         53.0510   -2.7840   25.6240 C.2    10  ASN10       0.2292
     25  O         53.9940   -2.2110   25.0830 O.2    10  ASN10      -0.2864
     26  CB        51.6490   -3.1710   23.5700 C.3    10  ASN10       0.1181
     27  CG        51.9900   -4.6430   23.4240 C.2    10  ASN10       0.2629
     28  OD1       51.8060   -5.2280   22.3530 O.2    10  ASN10      -0.2716
     29  ND2       52.4980   -5.2450   24.4910 N.am   10  ASN10      -0.0877
     30  N         55.9510   -3.8100   23.3770 N.3    13  VAL13      -0.1245
     31  CA        56.4810   -2.7460   22.5440 C.3    13  VAL13       0.1561
     32  C         57.4100   -1.8260   23.3350 C.2    13  VAL13       0.2260
     33  O         58.5170   -1.5340   22.8920 O.2    13  VAL13      -0.2867
     34  CB        55.3370   -1.9100   21.9170 C.3    13  VAL13       0.0252
     35  CG1       55.9140   -0.7160   21.1750 C.3    13  VAL13       0.0019
     36  CG2       54.5260   -2.7810   20.9490 C.3    13  VAL13       0.0019
     37  N         51.8760    3.2200   28.5420 N.3    30  GLY30      -0.1210
     38  CA        50.5420    3.5460   28.9920 C.3    30  GLY30       0.1956
     39  C         49.7300    4.2150   27.9070 C.2    30  GLY30       0.2612
     40  O         50.1690    4.3340   26.7580 O.2    30  GLY30      -0.2717
     41  N         48.5350    4.6520   28.2820 N.am   31  HIS31      -0.1961
     42  CA        47.6250    5.3130   27.3600 C.3    31  HIS31       0.1787
     43  C         48.0920    6.7190   27.0390 C.2    31  HIS31       0.2620
     44  O         48.7690    7.3660   27.8400 O.2    31  HIS31      -0.2715
     45  CB        46.2220    5.3700   27.9680 C.3    31  HIS31       0.0785
     46  CG        45.5900    4.0260   28.1410 C.ar   31  HIS31       0.0821
     47  ND1       44.8150    3.4380   27.1660 N.ar   31  HIS31      -0.2267
     48  CD2       45.6640    3.1310   29.1550 C.ar   31  HIS31       0.1154
     49  CE1       44.4410    2.2370   27.5690 C.ar   31  HIS31       0.1986
     50  NE2       44.9430    2.0260   28.7720 N.ar   31  HIS31      -0.2212
     51  N         47.7200    7.1830   25.8540 N.am   32  LEU32      -0.1977
     52  CA        48.0700    8.5210   25.4100 C.3    32  LEU32       0.1596
     53  C         47.5480    9.5500   26.4120 C.2    32  LEU32       0.2287
     54  O         48.2030   10.5510   26.6890 O.2    32  LEU32      -0.2864
     55  CB        47.4530    8.7870   24.0370 C.3    32  LEU32       0.0297
     56  CG        47.5360   10.2220   23.5190 C.3    32  LEU32       0.0022
     57  CD1       48.9850   10.6520   23.4240 C.3    32  LEU32       0.0001
     58  CD2       46.8570   10.3070   22.1630 C.3    32  LEU32       0.0001
     59  N         49.0620    6.4540   13.3420 N.3    52  PRO52      -0.2116
     60  CA        49.2360    5.3120   12.4430 C.3    52  PRO52       0.1372
     61  C         47.8060    5.0220   11.9880 C.2    52  PRO52       0.2244
     62  O         47.0780    4.2770   12.6330 O.2    52  PRO52      -0.2868
     63  CB        49.8080    4.2350   13.3630 C.3    52  PRO52       0.0268
     64  CG        49.1360    4.5260   14.6770 C.3    52  PRO52       0.0207
     65  CD        49.1160    6.0450   14.7580 C.3    52  PRO52       0.0892
     66  N         39.7680    3.2940   15.4620 N.3    61  GLY61      -0.1210
     67  CA        40.3510    2.2180   16.2470 C.3    61  GLY61       0.1956
     68  C         41.8000    2.4490   16.6360 C.2    61  GLY61       0.2612
     69  O         42.4730    3.3110   16.0720 O.2    61  GLY61      -0.2717
     70  N         42.2810    1.6700   17.6030 N.am   62  GLY62      -0.1942
     71  CA        43.6560    1.7920   18.0490 C.3    62  GLY62       0.2014
     72  C         44.0490    3.1660   18.5590 C.2    62  GLY62       0.2639
     73  O         43.2600    3.8660   19.1910 O.2    62  GLY62      -0.2714
     74  N         45.2870    3.5520   18.2810 N.am   63  PHE63      -0.1959
     75  CA        45.8100    4.8400   18.7100 C.3    63  PHE63       0.1771
     76  C         44.9010    5.9700   18.2220 C.2    63  PHE63       0.2619
     77  O         44.6000    6.8950   18.9720 O.2    63  PHE63      -0.2715
     78  CB        47.2280    5.0310   18.1630 C.3    63  PHE63       0.0574
     79  CG        48.0140    6.0940   18.8740 C.ar   63  PHE63      -0.0200
     80  CD1       48.4380    5.9050   20.1910 C.ar   63  PHE63      -0.0042
     81  CD2       48.3440    7.2840   18.2260 C.ar   63  PHE63      -0.0042
     82  CE1       49.1840    6.8890   20.8530 C.ar   63  PHE63      -0.0003
     83  CE2       49.0880    8.2710   18.8780 C.ar   63  PHE63      -0.0003
     84  CZ        49.5080    8.0700   20.1940 C.ar   63  PHE63      -0.0000
     85  N         44.4660    5.8830   16.9660 N.am   64  ASP64      -0.1971
     86  CA        43.5850    6.8930   16.3800 C.3    64  ASP64       0.1709
     87  C         42.3230    7.1190   17.2080 C.2    64  ASP64       0.2293
     88  O         41.7780    8.2220   17.2250 O.2    64  ASP64      -0.2864
     89  CB        43.1740    6.5000   14.9550 C.3    64  ASP64       0.1436
     90  CG        44.2960    6.6810   13.9490 C.2    64  ASP64       0.3671
     91  OD1       45.3280    7.2900   14.3010 O.co2  64  ASP64      -0.2456
     92  OD2       44.1350    6.2220   12.8010 O.co2  64  ASP64      -0.2456
     93  N         42.1800    7.1180   20.3800 N.3    66  ALA66      -0.1245
     94  CA        42.5910    7.9910   21.4800 C.3    66  ALA66       0.1562
     95  C         42.4850    9.4300   21.0020 C.2    66  ALA66       0.2260
     96  O         41.9200   10.2820   21.6820 O.2    66  ALA66      -0.2867
     97  CB        44.0250    7.6860   21.8920 C.3    66  ALA66       0.0290
     98  N         48.9970    3.4380    7.6810 N.3   118  THR118     -0.1203
     99  CA        49.7320    2.1790    7.8280 C.3   118  THR118      0.1994
    100  C         48.9410    1.0250    7.1990 C.2   118  THR118      0.2617
    101  O         49.4910   -0.0470    6.9320 O.2   118  THR118     -0.2717
    102  CB        50.0190    1.8600    9.3110 C.3   118  THR118      0.1784
    103  OG1       48.7990    1.9200   10.0600 O.3   118  THR118     -0.2211
    104  CG2       51.0170    2.8660    9.8780 C.3   118  THR118      0.0376
    105  N         47.6490    1.2590    6.9720 N.am  119  VAL119     -0.1979
    106  CA        46.7690    0.2840    6.3370 C.3   119  VAL119      0.1595
    107  C         45.7880    1.0260    5.4290 C.2   119  VAL119      0.2287
    108  O         45.4760    2.1950    5.6710 O.2   119  VAL119     -0.2864
    109  CB        45.9430   -0.5340    7.3720 C.3   119  VAL119      0.0276
    110  CG1       46.8760   -1.2560    8.3280 C.3   119  VAL119      0.0022
    111  CG2       44.9830    0.3840    8.1350 C.3   119  VAL119      0.0022
    112  N         53.5730    6.2990   18.6670 N.3   161  PRO161     -0.2102
    113  CA        53.1800    5.0240   19.2710 C.3   161  PRO161      0.1504
    114  C         53.8350    3.9240   18.4400 C.2   161  PRO161      0.2576
    115  O         54.5440    4.2190   17.4780 O.2   161  PRO161     -0.2718
    116  CB        51.6780    5.0290   19.0850 C.3   161  PRO161      0.0282
    117  CG        51.5740    5.5620   17.6640 C.3   161  PRO161      0.0208
    118  CD        52.5880    6.7170   17.6510 C.3   161  PRO161      0.0893
    119  N         53.6080    2.6640   18.8000 N.am  162  GLY162     -0.1957
    120  CA        54.1650    1.5920   17.9990 C.3   162  GLY162      0.1869
    121  C         53.5100    1.6960   16.6280 C.2   162  GLY162      0.2309
    122  O         52.3140    1.9660   16.5300 O.2   162  GLY162     -0.2863
    123  N         52.2290    0.0070   13.1920 N.3   164  CYS164     -0.1221
    124  CA        51.7920   -1.2480   12.5690 C.3   164  CYS164      0.1808
    125  C         51.7130   -2.4110   13.5520 C.2   164  CYS164      0.2602
    126  O         51.5150   -3.5600   13.1480 O.2   164  CYS164     -0.2717
    127  CB        52.7350   -1.6290   11.4220 C.3   164  CYS164      0.0970
    128  SG        53.0420   -0.2950   10.2370 S.3   164  CYS164     -0.0800
    129  N         51.8480   -2.1020   14.8370 N.am  165  THR165     -0.1939
    130  CA        51.8310   -3.1110   15.8960 C.3   165  THR165      0.2028
    131  C         50.4660   -3.3760   16.5180 C.2   165  THR165      0.2643
    132  O         50.3530   -4.1130   17.5020 O.2   165  THR165     -0.2714
    133  CB        52.7990   -2.7130   17.0120 C.3   165  THR165      0.1808
    134  OG1       52.5920   -1.3330   17.3370 O.3   165  THR165     -0.2208
    135  CG2       54.2320   -2.9170   16.5710 C.3   165  THR165      0.0379
    136  N         49.4320   -2.7650   15.9570 N.am  166  GLY166     -0.1939
    137  CA        48.0890   -2.9710   16.4710 C.3   166  GLY166      0.2014
    138  C         47.2770   -3.6900   15.4120 C.2   166  GLY166      0.2639
    139  O         47.5470   -4.8500   15.0820 O.2   166  GLY166     -0.2714
    140  N         46.2930   -2.9920   14.8560 N.am  167  TYR167     -0.1959
    141  CA        45.4500   -3.5630   13.8220 C.3   167  TYR167      0.1771
    142  C         46.2280   -4.0520   12.5990 C.2   167  TYR167      0.2619
    143  O         45.7580   -4.9390   11.8910 O.2   167  TYR167     -0.2715
    144  CB        44.3830   -2.5530   13.3880 C.3   167  TYR167      0.0574
    145  CG        43.2150   -2.4740   14.3390 C.ar  167  TYR167     -0.0198
    146  CD1       43.3480   -1.8840   15.5950 C.ar  167  TYR167     -0.0009
    147  CD2       41.9810   -3.0280   14.0000 C.ar  167  TYR167     -0.0009
    148  CE1       42.2760   -1.8500   16.4950 C.ar  167  TYR167      0.0417
    149  CE2       40.9040   -3.0010   14.8930 C.ar  167  TYR167      0.0417
    150  CZ        41.0610   -2.4130   16.1350 C.ar  167  TYR167      0.1957
    151  OH        40.0030   -2.4060   17.0240 O.3   167  TYR167     -0.2866
    152  N         47.4090   -3.4900   12.3500 N.am  168  ALA168     -0.1977
    153  CA        48.2070   -3.9080   11.1960 C.3   168  ALA168      0.1597
    154  C         48.7780   -5.3150   11.3950 C.2   168  ALA168      0.2287
    155  O         49.1130   -6.0010   10.4280 O.2   168  ALA168     -0.2864
    156  CB        49.3390   -2.9080   10.9380 C.3   168  ALA168      0.0319
@<TRIPOS>BOND
     1   107   108    2
     2   107   106    1
     3   106   105    1
     4   106   109    1
     5   101   100    2
     6   105   100   am
     7   100    99    1
     8   109   111    1
     9   109   110    1
    10    98    99    1
    11    99   102    1
    12   102   104    1
    13   102   103    1
    14   128   127    1
    15   155   154    2
    16   156   153    1
    17   153   154    1
    18   153   152    1
    19   127   124    1
    20   143   142    2
    21    61    60    1
    22    61    62    2
    23   152   142   am
    24    60    59    1
    25    60    63    1
    26   124   123    1
    27   124   125    1
    28   142   141    1
    29    92    90   ar
    30   126   125    2
    31    59    65    1
    32    63    64    1
    33   144   141    1
    34   144   145    1
    35   125   129   am
    36   141   140    1
    37    90    91   ar
    38    90    89    1
    39   147   145   ar
    40   147   149   ar
    41   145   146   ar
    42    64    65    1
    43   129   130    1
    44   140   138   am
    45   149   150   ar
    46    89    86    1
    47   139   138    2
    48   138   137    1
    49    66    67    1
    50   146   148   ar
    51   130   131    1
    52   130   133    1
    53   136   137    1
    54   136   131   am
    55    69    68    2
    56   150   148   ar
    57   150   151    1
    58    67    68    1
    59    86    85    1
    60    86    87    1
    61   131   132    2
    62   122   121    2
    63   135   133    1
    64   121   120    1
    65    68    70   am
    66    85    76   am
    67   133   134    1
    68    87    88    2
    69   115   114    2
    70    70    71    1
    71   118   117    1
    72   118   112    1
    73   117   116    1
    74   120   119    1
    75    71    72    1
    76    78    75    1
    77    78    79    1
    78    76    75    1
    79    76    77    2
    80    81    79   ar
    81    81    83   ar
    82    74    72   am
    83    74    75    1
    84   114   119   am
    85   114   113    1
    86    72    73    2
    87   112   113    1
    88    79    80   ar
    89    83    84   ar
    90   116   113    1
    91    80    82   ar
    92    84    82   ar
    93    93    94    1
    94    13    12   ar
    95    36    34    1
    96    95    94    1
    97    95    96    2
    98    35    34    1
    99    94    97    1
   100    34    31    1
   101    12    14   ar
   102    12    11    1
   103     4     3    2
   104    58    56    1
   105    28    27    2
   106    31    32    1
   107    31    30    1
   108     1     2    1
   109    33    32    2
   110    11     8    1
   111     3     2    1
   112     3     7   am
   113    27    26    1
   114    27    29   am
   115    57    56    1
   116    56    55    1
   117    26    23    1
   118     2     5    1
   119     8     7    1
   120     8     9    1
   121     5     6    1
   122    55    52    1
   123    20    19    1
   124    15     9   am
   125    15    16    1
   126    23    22    1
   127    23    24    1
   128    25    24    2
   129     9    10    2
   130    22    17   am
   131    52    51    1
   132    52    53    1
   133    51    43   am
   134    19    16    1
   135    19    21    1
   136    16    17    1
   137    17    18    2
   138    53    54    2
   139    40    39    2
   140    43    42    1
   141    43    44    2
   142    47    49   ar
   143    47    46   ar
   144    42    45    1
   145    42    41    1
   146    49    50   ar
   147    39    41   am
   148    39    38    1
   149    45    46    1
   150    46    48   ar
   151    37    38    1
   152    50    48   ar
