@<TRIPOS>MOLECULE
tmp/1tydA00.pdb
 135 125 0 0 0
SMALL
GASTEIGER

@<TRIPOS>ATOM
      1  N        -15.5950   22.0730    4.4110 N.3    34  TYR34      -0.1241
      2  CA       -14.8050   22.1960    3.1700 C.3    34  TYR34       0.1605
      3  C        -15.2200   21.1190    2.1700 C.2    34  TYR34       0.2264
      4  O        -15.8380   20.1020    2.5230 O.2    34  TYR34      -0.2867
      5  CB       -13.2850   22.2200    3.4440 C.3    34  TYR34       0.0534
      6  CG       -12.4590   20.9710    3.2940 C.ar   34  TYR34      -0.0201
      7  CD1      -11.8790   20.6170    2.0780 C.ar   34  TYR34      -0.0009
      8  CD2      -12.2440   20.0960    4.3630 C.ar   34  TYR34      -0.0009
      9  CE1      -11.1390   19.4700    1.9120 C.ar   34  TYR34       0.0417
     10  CE2      -11.5000   18.9360    4.2450 C.ar   34  TYR34       0.0417
     11  CZ       -10.9240   18.6290    3.0050 C.ar   34  TYR34       0.1957
     12  OH       -10.1740   17.4750    2.9770 O.3    34  TYR34      -0.2866
     13  N        -13.2790   19.5160   -1.5490 N.3    36  GLY36      -0.1210
     14  CA       -12.0850   19.6140   -2.4010 C.3    36  GLY36       0.1956
     15  C        -12.3750   19.4250   -3.8660 C.2    36  GLY36       0.2612
     16  O        -13.3170   18.6560   -4.1380 O.2    36  GLY36      -0.2717
     17  N        -11.7270   20.1050   -4.7890 N.am   37  PHE37      -0.1962
     18  CA       -12.0540   19.8830   -6.2360 C.3    37  PHE37       0.1771
     19  C        -10.6870   19.7900   -6.9000 C.2    37  PHE37       0.2619
     20  O         -9.8650   20.7080   -6.7820 O.2    37  PHE37      -0.2715
     21  CB       -12.8580   21.0250   -6.8690 C.3    37  PHE37       0.0574
     22  CG       -14.1430   21.3610   -6.1620 C.ar   37  PHE37      -0.0200
     23  CD1      -14.1440   22.1340   -4.9850 C.ar   37  PHE37      -0.0042
     24  CD2      -15.3430   20.8600   -6.6910 C.ar   37  PHE37      -0.0042
     25  CE1      -15.3280   22.3970   -4.2980 C.ar   37  PHE37      -0.0003
     26  CE2      -16.5330   21.1120   -6.0220 C.ar   37  PHE37      -0.0003
     27  CZ       -16.5250   21.8800   -4.8600 C.ar   37  PHE37      -0.0000
     28  N        -10.4930   18.6880   -7.5850 N.am   38  ASP38      -0.1971
     29  CA        -9.2530   18.3740   -8.3020 C.3    38  ASP38       0.1709
     30  C         -9.3690   18.7830   -9.7620 C.2    38  ASP38       0.2293
     31  O        -10.3370   18.4490  -10.4270 O.2    38  ASP38      -0.2864
     32  CB        -8.9150   16.8830   -8.1720 C.3    38  ASP38       0.1436
     33  CG        -8.0910   16.4400   -7.0360 C.2    38  ASP38       0.3671
     34  OD1       -7.7320   17.2620   -6.1880 O.co2  38  ASP38      -0.2456
     35  OD2       -7.8230   15.2050   -6.9840 O.co2  38  ASP38      -0.2456
     36  N         -8.9990   18.1950  -13.1440 N.3    40  THR40      -0.1218
     37  CA        -8.9060   17.0290  -14.0120 C.3    40  THR40       0.1862
     38  C         -9.2240   17.4880  -15.4350 C.2    40  THR40       0.2287
     39  O         -9.1540   16.6350  -16.3200 O.2    40  THR40      -0.2866
     40  CB        -9.7910   15.7900  -13.6340 C.3    40  THR40       0.1770
     41  OG1      -11.1440   16.2870  -13.8720 O.3    40  THR40      -0.2211
     42  CG2       -9.6360   15.2300  -12.2340 C.3    40  THR40       0.0375
     43  N        -19.9940   18.3870  -10.7260 N.3    48  HIS48      -0.1241
     44  CA       -19.5790   19.0670   -9.5180 C.3    48  HIS48       0.1621
     45  C        -20.6120   19.9870   -8.8780 C.2    48  HIS48       0.2264
     46  O        -20.3170   20.4190   -7.7210 O.2    48  HIS48      -0.2867
     47  CB       -18.3210   19.9390   -9.7760 C.3    48  HIS48       0.0745
     48  CG       -17.1960   19.2790  -10.4880 C.ar   48  HIS48       0.0817
     49  ND1      -16.1780   18.5910   -9.8450 N.ar   48  HIS48      -0.2268
     50  CD2      -16.9060   19.2200  -11.8100 C.ar   48  HIS48       0.1154
     51  CE1      -15.3220   18.1460  -10.7530 C.ar   48  HIS48       0.1986
     52  NE2      -15.7440   18.5040  -11.9530 N.ar   48  HIS48      -0.2212
     53  N        -11.6730   23.9050   -1.6740 N.3    68  LEU68      -0.1245
     54  CA       -10.2820   23.5240   -1.8310 C.3    68  LEU68       0.1561
     55  C         -9.9720   23.0820   -3.2560 C.2    68  LEU68       0.2260
     56  O        -10.5330   22.0980   -3.7480 O.2    68  LEU68      -0.2867
     57  CB        -9.9160   22.3890   -0.8620 C.3    68  LEU68       0.0270
     58  CG        -8.4340   21.9860   -1.0300 C.3    68  LEU68       0.0019
     59  CD1       -7.6320   22.3920    0.1890 C.3    68  LEU68       0.0001
     60  CD2       -8.4170   20.4820   -1.2890 C.3    68  LEU68       0.0001
     61  N         -7.5300   21.3200   -5.6310 N.3    70  GLY70      -0.1225
     62  CA        -6.5680   20.2510   -5.5580 C.3    70  GLY70       0.1811
     63  C         -5.3210   20.4140   -6.3970 C.2    70  GLY70       0.2280
     64  O         -5.0460   19.5860   -7.2930 O.2    70  GLY70      -0.2866
     65  N         -3.0070   17.1970   -5.0180 N.3    73  THR73      -0.1274
     66  CA        -3.6960   15.9490   -5.3070 C.3    73  THR73       0.1548
     67  C         -4.0240   15.7250   -6.7490 C.3    73  THR73       0.2036
     68  O         -4.0570   14.5280   -7.2240 O.3    73  THR73      -0.2187
     69  CB        -5.0010   15.8220   -4.4240 C.3    73  THR73       0.1721
     70  OG1       -5.6330   17.1380   -4.5180 O.3    73  THR73      -0.2215
     71  CG2       -4.7620   15.3730   -2.9840 C.3    73  THR73       0.0371
     72  N         -7.0800   10.6390   -7.8150 N.3    78  ASP78      -0.1239
     73  CA        -8.0060    9.8590   -6.9690 C.3    78  ASP78       0.1674
     74  C         -8.6250    8.7020   -7.7370 C.2    78  ASP78       0.2266
     75  O         -9.3430    8.8770   -8.7430 O.2    78  ASP78      -0.2867
     76  CB        -9.0430   10.8770   -6.4740 C.3    78  ASP78       0.1410
     77  CG       -10.0110   10.4590   -5.4270 C.2    78  ASP78       0.3668
     78  OD1       -9.7780    9.3460   -4.8930 O.co2  78  ASP78      -0.2456
     79  OD2      -10.9680   11.1810   -5.0910 O.co2  78  ASP78      -0.2456
     80  N        -13.5200    5.6630  -10.2050 N.3    82  LYS82      -0.1245
     81  CA       -12.7880    5.3810  -11.4300 C.3    82  LYS82       0.1561
     82  C        -12.4980    3.8850  -11.4780 C.2    82  LYS82       0.2260
     83  O        -11.9980    3.2910  -10.5100 O.2    82  LYS82      -0.2867
     84  CB       -11.5270    6.2500  -11.4900 C.3    82  LYS82       0.0271
     85  CG       -11.9100    7.7270  -11.5040 C.3    82  LYS82       0.0035
     86  CD       -10.7860    8.7100  -11.3660 C.3    82  LYS82       0.0206
     87  CE       -11.2220   10.0140  -10.6930 C.3    82  LYS82       0.1093
     88  NZ       -10.2200   11.0470  -11.0730 N.3    82  LYS82      -0.1314
     89  N         -3.1220    8.2950   -2.5270 N.3   169  TYR169     -0.1241
     90  CA        -3.9680    9.4730   -2.6670 C.3   169  TYR169      0.1605
     91  C         -4.7220    9.7780   -1.3790 C.2   169  TYR169      0.2264
     92  O         -4.7520   10.9220   -0.8980 O.2   169  TYR169     -0.2867
     93  CB        -4.9690    9.3040   -3.8520 C.3   169  TYR169      0.0534
     94  CG        -5.7900   10.5560   -4.0680 C.ar  169  TYR169     -0.0201
     95  CD1       -6.9300   10.8220   -3.3250 C.ar  169  TYR169     -0.0009
     96  CD2       -5.3750   11.5220   -4.9930 C.ar  169  TYR169     -0.0009
     97  CE1       -7.6460   11.9970   -3.5120 C.ar  169  TYR169      0.0417
     98  CE2       -6.0840   12.6980   -5.2290 C.ar  169  TYR169      0.0417
     99  CZ        -7.2410   12.9280   -4.4640 C.ar  169  TYR169      0.1957
    100  OH        -8.0160   14.0430   -4.6170 O.3   169  TYR169     -0.2866
    101  N         -5.4480   13.4110    0.9130 N.3   173  GLN173     -0.1245
    102  CA        -6.7960   13.9340    1.2050 C.3   173  GLN173      0.1566
    103  C         -6.9750   13.8740    2.7350 C.2   173  GLN173      0.2260
    104  O         -7.5150   14.7900    3.4010 O.2   173  GLN173     -0.2867
    105  CB        -7.8620   13.2680    0.3650 C.3   173  GLN173      0.0367
    106  CG        -9.2760   13.7520    0.7790 C.3   173  GLN173      0.0905
    107  CD       -10.3110   13.4780   -0.2490 C.2   173  GLN173      0.2608
    108  OE1      -10.0660   13.0810   -1.3930 O.2   173  GLN173     -0.2717
    109  NE2      -11.5880   13.7020    0.0660 N.am  173  GLN173     -0.0878
    110  N         -5.1060   16.7920    4.1540 N.3   176  ASP176     -0.1239
    111  CA        -5.8290   18.0500    3.8950 C.3   176  ASP176      0.1674
    112  C         -6.8130   18.3470    5.0420 C.2   176  ASP176      0.2266
    113  O         -6.8470   19.4750    5.5680 O.2   176  ASP176     -0.2867
    114  CB        -6.5240   18.0980    2.5310 C.3   176  ASP176      0.1410
    115  CG        -5.6180   18.1670    1.3670 C.2   176  ASP176      0.3668
    116  OD1       -4.4810   18.6060    1.6110 O.co2 176  ASP176     -0.2456
    117  OD2       -6.1000   17.8030    0.2870 O.co2 176  ASP176     -0.2456
    118  N        -16.3630   17.8450    6.5260 N.3   189  GLN189     -0.1245
    119  CA       -15.9360   17.6980    5.1340 C.3   189  GLN189      0.1566
    120  C        -17.1480   17.0940    4.4000 C.2   189  GLN189      0.2260
    121  O        -17.7660   16.1560    4.9110 O.2   189  GLN189     -0.2867
    122  CB       -14.7000   16.8500    4.8360 C.3   189  GLN189      0.0367
    123  CG       -14.4450   16.8440    3.3170 C.3   189  GLN189      0.0905
    124  CD       -13.3250   15.8990    2.9790 C.2   189  GLN189      0.2608
    125  OE1      -12.9670   15.6870    1.8220 O.2   189  GLN189     -0.2717
    126  NE2      -12.7950   15.3150    4.0220 N.am  189  GLN189     -0.0878
    127  N        -16.4370    9.6650   -2.2350 N.3   195  GLN195     -0.1245
    128  CA       -15.4610   10.2220   -1.3020 C.3   195  GLN195      0.1566
    129  C        -15.5300    9.7080    0.1110 C.2   195  GLN195      0.2260
    130  O        -14.7130   10.1470    0.9380 O.2   195  GLN195     -0.2867
    131  CB       -15.6240   11.7610   -1.2260 C.3   195  GLN195      0.0367
    132  CG       -15.2970   12.5000   -2.4850 C.3   195  GLN195      0.0905
    133  CD       -13.9730   12.1130   -3.0880 C.2   195  GLN195      0.2608
    134  OE1      -12.9210   12.3750   -2.4680 O.2   195  GLN195     -0.2717
    135  NE2      -13.9330   11.4990   -4.2600 N.am  195  GLN195     -0.0878
@<TRIPOS>BOND
     1    39    38    2
     2    38    37    1
     3    37    40    1
     4    37    36    1
     5    41    40    1
     6    40    42    1
     7    52    50   ar
     8    52    51   ar
     9    50    48   ar
    10    85    84    1
    11    85    86    1
    12    84    81    1
    13    82    81    1
    14    82    83    2
    15    81    80    1
    16    86    87    1
    17    88    87    1
    18    51    49   ar
    19    43    44    1
    20    48    49   ar
    21    48    47    1
    22    31    30    2
    23    47    44    1
    24    30    29    1
    25    44    45    1
    26    45    46    2
    27    75    74    2
    28    29    32    1
    29    29    28    1
    30    32    33    1
    31    72    73    1
    32    74    73    1
    33    28    19   am
    34    64    63    2
    35    68    67    1
    36    33    35   ar
    37    33    34   ar
    38    73    76    1
    39    19    20    2
    40    19    18    1
    41    21    18    1
    42    21    22    1
    43    67    66    1
    44    24    22   ar
    45    24    26   ar
    46    76    77    1
    47    63    62    1
    48    18    17    1
    49    22    23   ar
    50    26    27   ar
    51    61    62    1
    52    77    79   ar
    53    77    78   ar
    54    66    65    1
    55    66    69    1
    56    98    96   ar
    57    98    99   ar
    58    96    94   ar
    59    23    25   ar
    60    27    25   ar
    61    17    15   am
    62   100    99    1
    63    70    69    1
    64    99    97   ar
    65    69    71    1
    66   135   133   am
    67    16    15    2
    68    94    93    1
    69    94    95   ar
    70    15    14    1
    71    93    90    1
    72    56    55    2
    73    97    95   ar
    74    55    54    1
    75   133   132    1
    76   133   134    2
    77    90    89    1
    78    90    91    1
    79   132   131    1
    80    14    13    1
    81   127   128    1
    82    54    53    1
    83    54    57    1
    84   108   107    2
    85    91    92    2
    86   128   131    1
    87   128   129    1
    88    60    58    1
    89    58    57    1
    90    58    59    1
    91   107   109   am
    92   107   106    1
    93   129   130    2
    94   117   115   ar
    95   105   106    1
    96   105   102    1
    97   101   102    1
    98   102   103    1
    99   115   116   ar
   100   115   114    1
   101   125   124    2
   102     9     7   ar
   103     9    11   ar
   104     7     6   ar
   105     3     4    2
   106     3     2    1
   107   114   111    1
   108   103   104    2
   109    12    11    1
   110   124   123    1
   111   124   126   am
   112    11    10   ar
   113     2     5    1
   114     2     1    1
   115     6     5    1
   116     6     8   ar
   117   123   122    1
   118   111   110    1
   119   111   112    1
   120    10     8   ar
   121   120   121    2
   122   120   119    1
   123   122   119    1
   124   112   113    2
   125   119   118    1
