@<TRIPOS>MOLECULE
tmp/1tynA00.pdb
 185 182 0 0 0
SMALL
GASTEIGER

@<TRIPOS>ATOM
      1  N         79.0910  -21.1190   58.8930 N.3    22  TYR22      -0.1241
      2  CA        78.9710  -19.7070   59.2150 C.3    22  TYR22       0.1605
      3  C         79.4650  -18.9250   58.0040 C.2    22  TYR22       0.2264
      4  O         80.1620  -19.4710   57.1530 O.2    22  TYR22      -0.2867
      5  CB        79.8380  -19.3700   60.4370 C.3    22  TYR22       0.0534
      6  CG        81.3070  -19.7240   60.2840 C.ar   22  TYR22      -0.0201
      7  CD1       82.2150  -18.8090   59.7500 C.ar   22  TYR22      -0.0009
      8  CD2       81.7880  -20.9800   60.6650 C.ar   22  TYR22      -0.0009
      9  CE1       83.5650  -19.1330   59.5940 C.ar   22  TYR22       0.0417
     10  CE2       83.1400  -21.3150   60.5150 C.ar   22  TYR22       0.0417
     11  CZ        84.0200  -20.3840   59.9770 C.ar   22  TYR22       0.1957
     12  OH        85.3500  -20.7090   59.8190 O.3    22  TYR22      -0.2866
     13  N         81.8070  -16.6930   56.0080 N.3    24  PHE24      -0.1227
     14  CA        83.2270  -16.3640   56.1290 C.3    24  PHE24       0.1736
     15  C         83.7180  -15.4520   54.9970 C.2    24  PHE24       0.2595
     16  O         84.6650  -14.6780   55.1810 O.2    24  PHE24      -0.2718
     17  CB        84.0970  -17.6310   56.2610 C.3    24  PHE24       0.0547
     18  CG        84.0970  -18.5100   55.0470 C.ar   24  PHE24      -0.0202
     19  CD1       83.0710  -19.4240   54.8350 C.ar   24  PHE24      -0.0042
     20  CD2       85.1320  -18.4390   54.1240 C.ar   24  PHE24      -0.0042
     21  CE1       83.0770  -20.2570   53.7140 C.ar   24  PHE24      -0.0003
     22  CE2       85.1450  -19.2590   53.0110 C.ar   24  PHE24      -0.0003
     23  CZ        84.1170  -20.1690   52.8010 C.ar   24  PHE24      -0.0000
     24  N         83.0380  -15.5060   53.8540 N.am   25  CYS25      -0.1970
     25  CA        83.3850  -14.6730   52.7000 C.3    25  CYS25       0.1712
     26  C         82.1750  -14.3930   51.8280 C.2    25  CYS25       0.2296
     27  O         81.1430  -15.0600   51.9390 O.2    25  CYS25      -0.2864
     28  CB        84.4520  -15.3570   51.8440 C.3    25  CYS25       0.0983
     29  SG        86.1640  -15.2020   52.4480 S.3    25  CYS25      -0.0798
     30  N         91.7580  -16.4030   48.2520 N.3    40  HIS40      -0.1226
     31  CA        92.1110  -16.5880   49.6560 C.3    40  HIS40       0.1752
     32  C         90.9390  -17.0640   50.5170 C.2    40  HIS40       0.2596
     33  O         91.1120  -17.3130   51.7090 O.2    40  HIS40      -0.2718
     34  CB        92.7770  -15.3260   50.2450 C.3    40  HIS40       0.0759
     35  CG        91.8160  -14.2640   50.7000 C.ar   40  HIS40       0.0818
     36  ND1       91.6570  -13.0740   50.0340 N.ar   40  HIS40      -0.2268
     37  CD2       91.0130  -14.1990   51.7930 C.ar   40  HIS40       0.1154
     38  CE1       90.7930  -12.3120   50.6910 C.ar   40  HIS40       0.1986
     39  NE2       90.3940  -12.9690   51.7540 N.ar   40  HIS40      -0.2212
     40  N         89.7460  -17.1490   49.9230 N.am   41  CYS41      -0.1970
     41  CA        88.5650  -17.6240   50.6330 C.3    41  CYS41       0.1712
     42  C         88.3500  -19.1140   50.3610 C.2    41  CYS41       0.2296
     43  O         87.3380  -19.6810   50.7660 O.2    41  CYS41      -0.2864
     44  CB        87.3130  -16.8640   50.1840 C.3    41  CYS41       0.0983
     45  SG        87.2370  -15.1310   50.7260 S.3    41  CYS41      -0.0798
     46  N         88.0160  -22.9030   50.4720 N.3    43  LYS43      -0.1245
     47  CA        87.7320  -23.8780   51.5160 C.3    43  LYS43       0.1561
     48  C         87.0720  -25.0330   50.7920 C.2    43  LYS43       0.2260
     49  O         86.5210  -24.8590   49.7030 O.2    43  LYS43      -0.2867
     50  CB        86.7380  -23.3380   52.5510 C.3    43  LYS43       0.0271
     51  CG        87.3380  -22.5480   53.6950 C.3    43  LYS43       0.0035
     52  CD        86.2680  -22.2220   54.7370 C.3    43  LYS43       0.0206
     53  CE        86.8380  -21.4430   55.9160 C.3    43  LYS43       0.1093
     54  NZ        85.7980  -21.1050   56.9340 N.3    43  LYS43      -0.1314
     55  N         99.0340  -12.0190   47.7400 N.3    81  LEU81      -0.1245
     56  CA        97.6210  -11.9400   47.3730 C.3    81  LEU81       0.1561
     57  C         97.4520  -11.4750   45.9290 C.2    81  LEU81       0.2260
     58  O         96.4160  -10.9300   45.5500 O.2    81  LEU81      -0.2867
     59  CB        96.8110  -11.0660   48.3400 C.3    81  LEU81       0.0270
     60  CG        96.6110  -11.6540   49.7400 C.3    81  LEU81       0.0019
     61  CD1       95.6390  -10.7970   50.5230 C.3    81  LEU81       0.0001
     62  CD2       96.0730  -13.0700   49.6340 C.3    81  LEU81       0.0001
     63  N         79.3050   -7.8470   63.6190 N.3   131  TYR131     -0.1241
     64  CA        78.9000   -8.3360   62.3140 C.3   131  TYR131      0.1605
     65  C         77.4090   -8.1030   62.1850 C.2   131  TYR131      0.2264
     66  O         76.6380   -8.4610   63.0780 O.2   131  TYR131     -0.2867
     67  CB        79.2410   -9.8120   62.1670 C.3   131  TYR131      0.0534
     68  CG        80.7170  -10.0400   62.0270 C.ar  131  TYR131     -0.0201
     69  CD1       81.5460  -10.0460   63.1460 C.ar  131  TYR131     -0.0009
     70  CD2       81.3020  -10.1790   60.7670 C.ar  131  TYR131     -0.0009
     71  CE1       82.9190  -10.1730   63.0140 C.ar  131  TYR131      0.0417
     72  CE2       82.6710  -10.3100   60.6240 C.ar  131  TYR131      0.0417
     73  CZ        83.4740  -10.3020   61.7480 C.ar  131  TYR131      0.1957
     74  OH        84.8330  -10.4030   61.6080 O.3   131  TYR131     -0.2866
     75  N         84.9700    2.0310   54.6160 N.3   171  ASP171     -0.1225
     76  CA        85.8150    1.0340   53.9600 C.3   171  ASP171      0.1805
     77  C         85.1820   -0.3520   54.1090 C.2   171  ASP171      0.2598
     78  O         84.2170   -0.5150   54.8520 O.2   171  ASP171     -0.2718
     79  CB        87.1710    1.0500   54.6960 C.3   171  ASP171      0.1424
     80  CG        88.2840    0.2960   53.9740 C.2   171  ASP171      0.3668
     81  OD1       88.0940   -0.2050   52.8420 O.co2 171  ASP171     -0.2456
     82  OD2       89.3870    0.2240   54.5610 O.co2 171  ASP171     -0.2456
     83  N         85.6680   -1.3320   53.3500 N.am  172  SER172     -0.1938
     84  CA        85.1990   -2.7080   53.5100 C.3   172  SER172      0.2055
     85  C         86.0170   -3.2290   54.7140 C.2   172  SER172      0.2643
     86  O         86.9250   -2.5230   55.1940 O.2   172  SER172     -0.2714
     87  CB        85.4550   -3.5440   52.2420 C.3   172  SER172      0.2130
     88  OG        86.8050   -3.4580   51.8170 O.3   172  SER172     -0.2179
     89  N         85.7410   -4.4410   55.1960 N.am  173  CYS173     -0.1953
     90  CA        86.4690   -4.9570   56.3640 C.3   173  CYS173      0.1843
     91  C         86.3650   -6.4770   56.4390 C.2   173  CYS173      0.2625
     92  O         85.7710   -7.1050   55.5540 O.2   173  CYS173     -0.2714
     93  CB        85.9260   -4.3030   57.6510 C.3   173  CYS173      0.0997
     94  SG        86.9850   -4.4020   59.1390 S.3   173  CYS173     -0.0797
     95  N         86.9490   -7.0650   57.4870 N.am  174  GLN174     -0.1963
     96  CA        86.9380   -8.5130   57.6740 C.3   174  GLN174      0.1733
     97  C         85.5470   -9.0990   57.5400 C.2   174  GLN174      0.2616
     98  O         84.6190   -8.7030   58.2450 O.2   174  GLN174     -0.2715
     99  CB        87.5420   -8.9050   59.0250 C.3   174  GLN174      0.0408
    100  CG        89.0510   -9.1070   58.9990 C.3   174  GLN174      0.0908
    101  CD        89.8120   -7.8480   58.6450 C.2   174  GLN174      0.2608
    102  OE1       89.5870   -6.7840   59.2400 O.2   174  GLN174     -0.2717
    103  NE2       90.7150   -7.9500   57.6670 N.am  174  GLN174     -0.0878
    104  N         85.4110  -10.0410   56.6190 N.am  175  GLY175     -0.1955
    105  CA        84.1270  -10.6740   56.3890 C.3   175  GLY175      0.1869
    106  C         83.5370  -10.2380   55.0650 C.2   175  GLY175      0.2309
    107  O         82.5580  -10.8280   54.6060 O.2   175  GLY175     -0.2863
    108  N         85.5460   -9.9390   52.3240 N.3   177  SER177     -0.1217
    109  CA        86.4230  -10.6120   51.3610 C.3   177  SER177      0.1889
    110  C         85.6740  -11.4510   50.3630 C.2   177  SER177      0.2288
    111  O         84.7470  -12.1660   50.7200 O.2   177  SER177     -0.2866
    112  CB        87.4280  -11.5070   52.0920 C.3   177  SER177      0.2089
    113  OG        88.3870  -10.7210   52.7810 O.3   177  SER177     -0.2183
    114  N         86.6680   -7.8820   46.8880 N.3   191  VAL191     -0.1231
    115  CA        87.2720   -7.4650   48.1540 C.3   191  VAL191      0.1692
    116  C         88.4430   -8.3980   48.4670 C.2   191  VAL191      0.2593
    117  O         88.2650   -9.6090   48.5960 O.2   191  VAL191     -0.2718
    118  CB        86.2560   -7.4980   49.3180 C.3   191  VAL191      0.0266
    119  CG1       86.8980   -6.9310   50.5910 C.3   191  VAL191      0.0020
    120  CG2       85.0080   -6.6990   48.9580 C.3   191  VAL191      0.0020
    121  N         89.6340   -7.8280   48.6050 N.am  192  SER192     -0.1938
    122  CA        90.8170   -8.6330   48.8620 C.3   192  SER192      0.2055
    123  C         91.4900   -8.3860   50.2150 C.2   192  SER192      0.2643
    124  O         91.4400   -9.2490   51.1030 O.2   192  SER192     -0.2714
    125  CB        91.8230   -8.4420   47.7210 C.3   192  SER192      0.2130
    126  OG        92.9040   -9.3490   47.8380 O.3   192  SER192     -0.2179
    127  N         92.0860   -7.2110   50.3980 N.am  193  TRP193     -0.1959
    128  CA        92.7880   -6.9260   51.6470 C.3   193  TRP193      0.1771
    129  C         92.9490   -5.4480   51.9520 C.2   193  TRP193      0.2620
    130  O         92.5310   -4.5840   51.1790 O.2   193  TRP193     -0.2715
    131  CB        94.1810   -7.5820   51.6210 C.3   193  TRP193      0.0590
    132  CG        95.1140   -7.0600   50.5280 C.ar  193  TRP193      0.0006
    133  CD1       95.1050   -7.4110   49.2060 C.ar  193  TRP193      0.0946
    134  CD2       96.1920   -6.1240   50.6860 C.ar  193  TRP193      0.0152
    135  NE1       96.1100   -6.7550   48.5340 N.ar  193  TRP193     -0.2442
    136  CE2       96.7920   -5.9610   49.4140 C.ar  193  TRP193      0.0810
    137  CE3       96.7100   -5.4110   51.7730 C.ar  193  TRP193      0.0012
    138  CZ2       97.8900   -5.1050   49.2010 C.ar  193  TRP193      0.0191
    139  CZ3       97.8020   -4.5630   51.5660 C.ar  193  TRP193      0.0001
    140  CH2       98.3780   -4.4200   50.2860 C.ar  193  TRP193      0.0015
    141  N         93.5580   -5.1750   53.0970 N.am  194  GLY194     -0.1940
    142  CA        93.8110   -3.8100   53.5130 C.3   194  GLY194      0.2014
    143  C         94.5170   -3.8400   54.8520 C.2   194  GLY194      0.2640
    144  O         94.5540   -4.8850   55.5060 O.2   194  GLY194     -0.2714
    145  N         95.1240   -2.7260   55.2410 N.am  195  SER195     -0.1935
    146  CA        95.7960   -2.6420   56.5310 C.3   195  SER195      0.2055
    147  C         94.7710   -2.0380   57.4840 C.2   195  SER195      0.2644
    148  O         94.4530   -0.8430   57.4080 O.2   195  SER195     -0.2714
    149  CB        97.0430   -1.7630   56.4380 C.3   195  SER195      0.2130
    150  OG        97.8420   -1.9020   57.6040 O.3   195  SER195     -0.2179
    151  N         94.2210   -2.8840   58.3520 N.am  196  GLY196     -0.1939
    152  CA        93.1960   -2.4410   59.2760 C.3   196  GLY196      0.2014
    153  C         91.9240   -2.2140   58.4760 C.2   196  GLY196      0.2639
    154  O         91.7500   -2.8010   57.3930 O.2   196  GLY196     -0.2714
    155  N         91.0540   -1.3450   58.9830 N.am  197  CYS197     -0.1967
    156  CA        89.7990   -1.0190   58.3130 C.3   197  CYS197      0.1712
    157  C         89.4740    0.4540   58.5250 C.2   197  CYS197      0.2296
    158  O         89.5510    0.9530   59.6480 O.2   197  CYS197     -0.2864
    159  CB        88.6390   -1.8650   58.8600 C.3   197  CYS197      0.0983
    160  SG        88.7660   -3.6560   58.5320 S.3   197  CYS197     -0.0798
    161  N         94.9790    4.1640   54.1830 N.3   202  LYS202     -0.1245
    162  CA        95.0180    2.7130   54.1330 C.3   202  LYS202      0.1561
    163  C         93.6770    2.2390   53.5480 C.2   202  LYS202      0.2260
    164  O         92.8640    1.6050   54.2330 O.2   202  LYS202     -0.2867
    165  CB        95.2460    2.1420   55.5330 C.3   202  LYS202      0.0271
    166  CG        96.6390    2.4220   56.0840 C.3   202  LYS202      0.0035
    167  CD        97.6870    1.6430   55.3060 C.3   202  LYS202      0.0206
    168  CE        99.1080    2.0240   55.6950 C.3   202  LYS202      0.1093
    169  NZ        99.5400    3.3080   55.0710 N.3   202  LYS202     -0.1314
    170  N         90.9550    0.2220   50.9110 N.3   204  GLY204     -0.1225
    171  CA        90.8280   -1.1900   50.6050 C.3   204  GLY204      0.1811
    172  C         91.4830   -1.5120   49.2740 C.2   204  GLY204      0.2280
    173  O         91.4800   -0.6720   48.3620 O.2   204  GLY204     -0.2866
    174  N         91.5330   -4.1380   46.0660 N.3   206  TYR206     -0.1241
    175  CA        90.6560   -5.0660   45.3730 C.3   206  TYR206      0.1605
    176  C         91.2970   -5.6780   44.1310 C.2   206  TYR206      0.2264
    177  O         92.1350   -5.0470   43.4800 O.2   206  TYR206     -0.2867
    178  CB        89.3810   -4.3130   44.9720 C.3   206  TYR206      0.0534
    179  CG        88.7090   -3.6280   46.1400 C.ar  206  TYR206     -0.0201
    180  CD1       89.1180   -2.3610   46.5690 C.ar  206  TYR206     -0.0009
    181  CD2       87.7060   -4.2680   46.8540 C.ar  206  TYR206     -0.0009
    182  CE1       88.5430   -1.7610   47.6990 C.ar  206  TYR206      0.0417
    183  CE2       87.1240   -3.6780   47.9710 C.ar  206  TYR206      0.0417
    184  CZ        87.5500   -2.4340   48.3930 C.ar  206  TYR206      0.1957
    185  OH        87.0260   -1.9100   49.5500 O.3   206  TYR206     -0.2866
@<TRIPOS>BOND
     1   177   176    2
     2   176   175    1
     3   178   175    1
     4   178   179    1
     5   175   174    1
     6    58    57    2
     7    57    56    1
     8   179   180   ar
     9   179   181   ar
    10   180   182   ar
    11   181   183   ar
    12   114   115    1
    13    56    55    1
    14    56    59    1
    15   182   184   ar
    16   125   126    1
    17   125   122    1
    18   183   184   ar
    19   115   116    1
    20   115   118    1
    21    30    31    1
    22    59    60    1
    23   173   172    2
    24   184   185    1
    25   116   117    2
    26   116   121   am
    27   135   133   ar
    28   135   136   ar
    29   121   122    1
    30   122   123    1
    31   120   118    1
    32   138   136   ar
    33   138   140   ar
    34   133   132   ar
    35   172   171    1
    36   118   119    1
    37   136   134   ar
    38    62    60    1
    39    31    34    1
    40    31    32    1
    41    49    48    2
    42    60    61    1
    43    40    32   am
    44    40    41    1
    45    36    38   ar
    46    36    35   ar
    47    44    41    1
    48    44    45    1
    49   123   127   am
    50   123   124    2
    51    34    35    1
    52   140   139   ar
    53    42    41    1
    54    42    43    2
    55   110   111    2
    56   110   109    1
    57   127   128    1
    58    46    47    1
    59    32    33    2
    60   132   134   ar
    61   132   131    1
    62   171   170    1
    63   134   137   ar
    64    38    39   ar
    65    35    37   ar
    66    45    29    1
    67    48    47    1
    68   130   129    2
    69   109   112    1
    70   109   108    1
    71    47    50    1
    72   139   137   ar
    73   131   128    1
    74   128   129    1
    75    39    37   ar
    76    88    87    1
    77    26    27    2
    78    26    25    1
    79    28    29    1
    80    28    25    1
    81   129   141   am
    82   112   113    1
    83    87    84    1
    84    50    51    1
    85    25    24    1
    86    23    22   ar
    87    23    21   ar
    88    81    80   ar
    89    22    20   ar
    90   141   142    1
    91    83    84    1
    92    83    77   am
    93    84    85    1
    94   142   143    1
    95   163   162    1
    96   163   164    2
    97    51    52    1
    98    21    19   ar
    99    24    15   am
   100    76    77    1
   101    76    75    1
   102    76    79    1
   103    80    82   ar
   104    80    79    1
   105    77    78    2
   106    20    18   ar
   107   162   161    1
   108   162   165    1
   109   107   106    2
   110    85    86    2
   111    85    89   am
   112    52    53    1
   113    19    18   ar
   114   143   145   am
   115   143   144    2
   116    15    16    2
   117    15    14    1
   118    18    17    1
   119   106   105    1
   120   169   168    1
   121    89    90    1
   122   145   146    1
   123   167   168    1
   124   167   166    1
   125   165   166    1
   126    92    91    2
   127    53    54    1
   128    13    14    1
   129    14    17    1
   130    90    91    1
   131    90    93    1
   132   105   104    1
   133   149   146    1
   134   149   150    1
   135    91    95   am
   136   146   147    1
   137   104    97   am
   138     4     3    2
   139   154   153    2
   140   148   147    2
   141   147   151   am
   142    95    96    1
   143    97    96    1
   144    97    98    2
   145    93    94    1
   146   103   101   am
   147    96    99    1
   148     3     2    1
   149   156   157    1
   150   156   159    1
   151   156   155    1
   152   151   152    1
   153   153   155   am
   154   153   152    1
   155   157   158    2
   156   160   159    1
   157   160    94    1
   158   101   100    1
   159   101   102    2
   160     1     2    1
   161   100    99    1
   162     2     5    1
   163     9     7   ar
   164     9    11   ar
   165     7     6   ar
   166    12    11    1
   167    11    10   ar
   168     6     5    1
   169     6     8   ar
   170    10     8   ar
   171    72    70   ar
   172    72    73   ar
   173    70    68   ar
   174    74    73    1
   175    73    71   ar
   176    68    67    1
   177    68    69   ar
   178    67    64    1
   179    65    64    1
   180    65    66    2
   181    64    63    1
   182    71    69   ar
