@<TRIPOS>MOLECULE
tmp/1typB02.pdb
 214 208 0 0 0
SMALL
GASTEIGER

@<TRIPOS>ATOM
      1  N         47.0420   18.9580    9.3450 N.3   164  GLN164     -0.1231
      2  CA        45.7280   19.5620    9.6020 C.3   164  GLN164      0.1698
      3  C         44.8000   19.3420    8.4330 C.2   164  GLN164      0.2592
      4  O         45.2200   19.4050    7.2790 O.2   164  GLN164     -0.2718
      5  CB        45.8450   21.0210    9.7730 C.3   164  GLN164      0.0381
      6  CG        44.7880   21.7240   10.5930 C.3   164  GLN164      0.0905
      7  CD        45.1660   23.2080   10.6350 C.2   164  GLN164      0.2608
      8  OE1       46.3440   23.6070   10.7280 O.2   164  GLN164     -0.2717
      9  NE2       44.1830   24.1000   10.5140 N.am  164  GLN164     -0.0878
     10  N         43.5550   18.9950    8.6870 N.am  165  HIS165     -0.1962
     11  CA        42.5860   18.8310    7.6160 C.3   165  HIS165      0.1787
     12  C         41.6600   20.0260    7.4630 C.2   165  HIS165      0.2620
     13  O         41.3800   20.7780    8.4030 O.2   165  HIS165     -0.2715
     14  CB        41.7490   17.6560    7.8710 C.3   165  HIS165      0.0785
     15  CG        42.5130   16.4510    7.4300 C.ar  165  HIS165      0.0821
     16  ND1       42.3340   15.6600    6.3710 N.ar  165  HIS165     -0.2267
     17  CD2       43.6240   16.0170    8.1030 C.ar  165  HIS165      0.1154
     18  CE1       43.2970   14.7730    6.3730 C.ar  165  HIS165      0.1986
     19  NE2       44.0650   15.0040    7.4170 N.ar  165  HIS165     -0.2212
     20  N         41.2090   20.2730    6.2450 N.am  166  LEU166     -0.1977
     21  CA        40.2870   21.3630    5.9360 C.3   166  LEU166      0.1596
     22  C         38.9510   20.7070    6.2010 C.2   166  LEU166      0.2287
     23  O         38.8220   19.5340    5.8340 O.2   166  LEU166     -0.2864
     24  CB        40.5380   21.6370    4.5130 C.3   166  LEU166      0.0297
     25  CG        40.1370   22.8660    3.8080 C.3   166  LEU166      0.0022
     26  CD1       40.7880   24.0420    4.4870 C.3   166  LEU166      0.0001
     27  CD2       40.5880   22.7670    2.3480 C.3   166  LEU166      0.0001
     28  N         47.5110   22.6390   -1.6510 N.3   193  VAL193     -0.1231
     29  CA        46.8550   23.7590   -1.0020 C.3   193  VAL193      0.1692
     30  C         47.5760   24.0640    0.3020 C.2   193  VAL193      0.2593
     31  O         47.8590   23.1720    1.1320 O.2   193  VAL193     -0.2718
     32  CB        45.2540   23.4630   -0.8210 C.3   193  VAL193      0.0266
     33  CG1       44.9380   22.0190   -1.0030 C.3   193  VAL193      0.0020
     34  CG2       44.7380   23.7730    0.5530 C.3   193  VAL193      0.0020
     35  N         47.9440   25.3520    0.3440 N.am  194  GLY194     -0.1942
     36  CA        48.5890   26.0190    1.4460 C.3   194  GLY194      0.2014
     37  C         49.7300   26.8420    0.8750 C.2   194  GLY194      0.2639
     38  O         50.2050   26.5720   -0.2380 O.2   194  GLY194     -0.2714
     39  N         50.2180   27.8790    1.5560 N.am  195  GLY195     -0.1939
     40  CA        51.3310   28.6520    1.0530 C.3   195  GLY195      0.2014
     41  C         52.5230   28.4570    1.9740 C.2   195  GLY195      0.2639
     42  O         53.4200   29.2930    1.9720 O.2   195  GLY195     -0.2714
     43  N         52.6370   27.4030    2.7650 N.am  196  GLY196     -0.1939
     44  CA        53.7220   27.2740    3.7170 C.3   196  GLY196      0.2014
     45  C         54.8500   26.5370    3.0890 C.2   196  GLY196      0.2639
     46  O         54.7600   26.2890    1.8940 O.2   196  GLY196     -0.2714
     47  N         55.8850   26.1040    3.7950 N.am  197  TYR197     -0.1959
     48  CA        57.0080   25.5190    3.0740 C.3   197  TYR197      0.1771
     49  C         56.7220   24.0720    2.6180 C.2   197  TYR197      0.2619
     50  O         57.3280   23.6200    1.6410 O.2   197  TYR197     -0.2715
     51  CB        58.3140   25.5820    3.9640 C.3   197  TYR197      0.0574
     52  CG        58.3890   24.5080    5.0450 C.ar  197  TYR197     -0.0198
     53  CD1       57.5300   24.5380    6.1180 C.ar  197  TYR197     -0.0009
     54  CD2       59.2630   23.4600    4.9220 C.ar  197  TYR197     -0.0009
     55  CE1       57.5470   23.5190    7.0490 C.ar  197  TYR197      0.0417
     56  CE2       59.2970   22.4510    5.8380 C.ar  197  TYR197      0.0417
     57  CZ        58.4370   22.4810    6.9050 C.ar  197  TYR197      0.1957
     58  OH        58.5280   21.4590    7.8220 O.3   197  TYR197     -0.2866
     59  N         55.8320   23.2780    3.2250 N.am  198  ILE198     -0.1963
     60  CA        55.6610   21.8850    2.8000 C.3   198  ILE198      0.1727
     61  C         54.9340   21.8670    1.4760 C.2   198  ILE198      0.2616
     62  O         55.3150   21.0810    0.6090 O.2   198  ILE198     -0.2715
     63  CB        54.8850   21.0620    3.8790 C.3   198  ILE198      0.0290
     64  CG1       55.7310   20.9730    5.1410 C.3   198  ILE198      0.0022
     65  CG2       54.5870   19.6620    3.3790 C.3   198  ILE198      0.0023
     66  CD1       55.0600   20.4080    6.3860 C.3   198  ILE198      0.0001
     67  N         53.9830   22.7840    1.2860 N.am  199  SER199     -0.1950
     68  CA        53.2720   22.9670    0.0190 C.3   199  SER199      0.1924
     69  C         54.2060   23.3140   -1.1420 C.2   199  SER199      0.2314
     70  O         54.2410   22.6320   -2.1670 O.2   199  SER199     -0.2863
     71  CB        52.2700   24.0930    0.1100 C.3   199  SER199      0.2116
     72  OG        51.1660   23.7960   -0.7280 O.3   199  SER199     -0.2180
     73  N         46.5600   29.2150   -2.4400 N.3   220  TYR220     -0.1227
     74  CA        46.7870   29.8580   -1.1790 C.3   220  TYR220      0.1736
     75  C         45.7130   30.8970   -0.9600 C.2   220  TYR220      0.2595
     76  O         45.4370   31.8050   -1.7470 O.2   220  TYR220     -0.2718
     77  CB        48.1460   30.5040   -1.2070 C.3   220  TYR220      0.0548
     78  CG        48.4440   31.2560    0.0680 C.ar  220  TYR220     -0.0200
     79  CD1       48.2550   30.6380    1.2920 C.ar  220  TYR220     -0.0009
     80  CD2       48.8900   32.5600   -0.0040 C.ar  220  TYR220     -0.0009
     81  CE1       48.5000   31.3140    2.4530 C.ar  220  TYR220      0.0417
     82  CE2       49.1420   33.2380    1.1710 C.ar  220  TYR220      0.0417
     83  CZ        48.9370   32.6060    2.3680 C.ar  220  TYR220      0.1957
     84  OH        49.1270   33.3160    3.5150 O.3   220  TYR220     -0.2866
     85  N         45.1550   30.8190    0.2200 N.am  221  ARG221     -0.1966
     86  CA        44.0930   31.7250    0.5700 C.3   221  ARG221      0.1729
     87  C         44.5040   33.1680    0.7680 C.2   221  ARG221      0.2616
     88  O         43.7010   34.0890    0.5830 O.2   221  ARG221     -0.2715
     89  CB        43.3780   31.0990    1.8140 C.3   221  ARG221      0.0348
     90  CG        43.5220   31.5780    3.2420 C.3   221  ARG221      0.0492
     91  CD        44.5210   30.7270    3.9220 C.3   221  ARG221      0.2205
     92  NE        44.8390   31.1000    5.2900 N.pl3 221  ARG221     -0.0865
     93  CZ        44.0160   30.8800    6.3190 C.cat 221  ARG221      0.5346
     94  NH1       42.8040   30.3190    6.1970 N.pl3 221  ARG221      0.1354
     95  NH2       44.5010   31.1190    7.5310 N.pl3 221  ARG221      0.1354
     96  N         45.7650   33.3800    1.0980 N.am  222  GLY222     -0.1955
     97  CA        46.2090   34.7250    1.3470 C.3   222  GLY222      0.1869
     98  C         46.4770   35.4930    0.0730 C.2   222  GLY222      0.2309
     99  O         45.9710   35.2070   -1.0070 O.2   222  GLY222     -0.2863
    100  N         53.9300   32.0480    1.6580 N.3   226  LEU226     -0.1231
    101  CA        54.9790   32.0140    2.6610 C.3   226  LEU226      0.1693
    102  C         54.9840   33.1850    3.6250 C.2   226  LEU226      0.2591
    103  O         55.9790   33.8920    3.8700 O.2   226  LEU226     -0.2718
    104  CB        56.2750   31.8940    1.9050 C.3   226  LEU226      0.0284
    105  CG        57.3460   30.9640    2.3080 C.3   226  LEU226      0.0019
    106  CD1       56.8430   29.5620    2.5280 C.3   226  LEU226      0.0001
    107  CD2       58.3260   30.9460    1.1620 C.3   226  LEU226      0.0001
    108  N         53.7950   33.2660    4.2570 N.am  227  ARG227     -0.1980
    109  CA        53.4690   34.2810    5.2410 C.3   227  ARG227      0.1597
    110  C         54.4410   34.1240    6.3980 C.2   227  ARG227      0.2287
    111  O         54.8700   33.0140    6.7320 O.2   227  ARG227     -0.2864
    112  CB        52.0690   34.0970    5.7550 C.3   227  ARG227      0.0334
    113  CG        51.5840   35.4200    6.3550 C.3   227  ARG227      0.0492
    114  CD        50.0970   35.4920    6.7080 C.3   227  ARG227      0.2205
    115  NE        49.7490   34.2550    7.3740 N.pl3 227  ARG227     -0.0865
    116  CZ        49.8370   34.0490    8.6940 C.cat 227  ARG227      0.5346
    117  NH1       50.2440   35.0010    9.5450 N.pl3 227  ARG227      0.1354
    118  NH2       49.6410   32.7980    9.1450 N.pl3 227  ARG227      0.1354
    119  N         57.5080   35.1680    6.0650 N.3   229  PHE229     -0.1241
    120  CA        58.8370   35.3430    5.5320 C.3   229  PHE229      0.1605
    121  C         59.0180   36.7470    4.9870 C.2   229  PHE229      0.2264
    122  O         58.0790   37.5430    5.0390 O.2   229  PHE229     -0.2867
    123  CB        59.0550   34.2660    4.4830 C.3   229  PHE229      0.0534
    124  CG        59.5350   32.9100    5.0370 C.ar  229  PHE229     -0.0203
    125  CD1       58.6600   31.9880    5.6040 C.ar  229  PHE229     -0.0042
    126  CD2       60.8760   32.5610    4.9670 C.ar  229  PHE229     -0.0042
    127  CE1       59.1080   30.7520    6.0720 C.ar  229  PHE229     -0.0003
    128  CE2       61.3320   31.3240    5.4340 C.ar  229  PHE229     -0.0003
    129  CZ        60.4480   30.4230    5.9950 C.ar  229  PHE229     -0.0000
    130  N         41.0430   29.0750   -2.4170 N.3   253  ASN253     -0.1240
    131  CA        40.9190   28.0660   -1.3830 C.3   253  ASN253      0.1653
    132  C         39.8350   27.1060   -1.8330 C.2   253  ASN253      0.2266
    133  O         38.8680   27.6090   -2.3940 O.2   253  ASN253     -0.2867
    134  CB        40.5300   28.7280   -0.0680 C.3   253  ASN253      0.1155
    135  CG        40.5070   27.7390    1.0890 C.2   253  ASN253      0.2627
    136  OD1       41.3360   26.8290    1.2060 O.2   253  ASN253     -0.2716
    137  ND2       39.5670   27.9010    1.9960 N.am  253  ASN253     -0.0877
    138  N         48.2930   20.7590    2.5510 N.3   283  ALA283     -0.1231
    139  CA        49.4210   21.0910    3.3930 C.3   283  ALA283      0.1694
    140  C         49.1330   22.4340    4.0290 C.2   283  ALA283      0.2592
    141  O         49.7860   23.4650    3.8270 O.2   283  ALA283     -0.2718
    142  CB        50.6960   21.1920    2.6000 C.3   283  ALA283      0.0304
    143  N         48.1290   22.3800    4.9010 N.am  284  ILE284     -0.1966
    144  CA        47.6810   23.5850    5.5500 C.3   284  ILE284      0.1727
    145  C         48.0830   23.7700    6.9870 C.2   284  ILE284      0.2617
    146  O         47.6410   24.7340    7.6090 O.2   284  ILE284     -0.2715
    147  CB        46.1680   23.7090    5.4680 C.3   284  ILE284      0.0290
    148  CG1       45.4620   22.4540    5.8870 C.3   284  ILE284      0.0022
    149  CG2       45.8490   24.1340    4.0410 C.3   284  ILE284      0.0023
    150  CD1       44.0770   22.9060    6.3440 C.3   284  ILE284      0.0001
    151  N         48.9770   22.9730    7.5470 N.am  285  GLY285     -0.1940
    152  CA        49.3560   23.2060    8.9220 C.3   285  GLY285      0.2014
    153  C         49.5660   21.8840    9.5980 C.2   285  GLY285      0.2638
    154  O         49.0820   20.8900    9.0500 O.2   285  GLY285     -0.2714
    155  N         50.3640   21.7930   10.6650 N.am  286  ARG286     -0.1977
    156  CA        50.6230   20.5740   11.4010 C.3   286  ARG286      0.1597
    157  C         50.0890   20.8430   12.8010 C.2   286  ARG286      0.2287
    158  O         50.5250   21.7720   13.4800 O.2   286  ARG286     -0.2864
    159  CB        52.1130   20.3080   11.5160 C.3   286  ARG286      0.0334
    160  CG        52.9090   20.3020   10.2420 C.3   286  ARG286      0.0492
    161  CD        53.0010   18.9300    9.6960 C.3   286  ARG286      0.2205
    162  NE        53.7310   18.1110   10.6230 N.pl3 286  ARG286     -0.0865
    163  CZ        53.7510   16.7940   10.5730 C.cat 286  ARG286      0.5346
    164  NH1       53.0860   16.1340    9.6390 N.pl3 286  ARG286      0.1354
    165  NH2       54.4520   16.1480   11.4920 N.pl3 286  ARG286      0.1354
    166  N         57.6030   19.2060   18.6660 N.3   326  ASP326     -0.1239
    167  CA        56.4520   19.7430   18.0130 C.3   326  ASP326      0.1674
    168  C         55.1830   19.7850   18.8060 C.2   326  ASP326      0.2266
    169  O         54.3460   20.6820   18.6440 O.2   326  ASP326     -0.2867
    170  CB        56.2130   18.9620   16.7570 C.3   326  ASP326      0.1410
    171  CG        57.1900   19.2360   15.6200 C.2   326  ASP326      0.3668
    172  OD1       58.2510   19.7990   15.8510 O.co2 326  ASP326     -0.2456
    173  OD2       56.8880   18.8840   14.4900 O.co2 326  ASP326     -0.2456
    174  N         59.1890   26.1380   18.1370 N.3   331  VAL331     -0.1231
    175  CA        59.5430   26.2060   16.7300 C.3   331  VAL331      0.1693
    176  C         59.5220   24.7340   16.3230 C.2   331  VAL331      0.2595
    177  O         60.2390   23.9150   16.9200 O.2   331  VAL331     -0.2718
    178  CB        60.9570   26.7410   16.4890 C.3   331  VAL331      0.0266
    179  CG1       61.1430   26.9240   15.0090 C.3   331  VAL331      0.0020
    180  CG2       61.1730   28.0350   17.1850 C.3   331  VAL331      0.0020
    181  N         58.6960   24.4000   15.3330 N.am  332  MET332     -0.1920
    182  CA        58.6250   23.0270   14.9000 C.3   332  MET332      0.1952
    183  C         59.7650   22.6990   13.9320 C.2   332  MET332      0.2658
    184  O         59.5730   22.6410   12.7210 O.2   332  MET332     -0.2711
    185  CB        57.2480   22.7600   14.2480 C.2   332  MET332      0.0110
    186  CG        55.9720   22.8450   15.0710 C.2   332  MET332      0.0285
    187  SD        54.4260   22.3750   14.2210 S.3   332  MET332     -0.1125
    188  CE        53.3920   22.3640   15.6510 C.3   332  MET332      0.0742
    189  N         61.0150   22.4910   14.3740 N.am  333  LEU333     -0.1974
    190  CA        62.0750   22.1010   13.4510 C.3   333  LEU333      0.1596
    191  C         62.8790   20.9700   14.0650 C.2   333  LEU333      0.2287
    192  O         63.0320   20.9850   15.2760 O.2   333  LEU333     -0.2864
    193  CB        63.0230   23.2260   13.1840 C.3   333  LEU333      0.0297
    194  CG        62.4650   24.4130   12.4610 C.3   333  LEU333      0.0022
    195  CD1       63.4610   25.5650   12.4970 C.3   333  LEU333      0.0001
    196  CD2       62.1060   23.9840   11.0570 C.3   333  LEU333      0.0001
    197  N         66.2760   28.7970    9.3590 N.3   363  CYS363     -0.1221
    198  CA        65.6510   27.7360    8.6130 C.3   363  CYS363      0.1808
    199  C         65.7730   27.9940    7.1260 C.2   363  CYS363      0.2601
    200  O         66.0660   29.0980    6.6520 O.2   363  CYS363     -0.2717
    201  CB        64.2130   27.6060    9.0620 C.3   363  CYS363      0.0970
    202  SG        63.1790   29.0580    8.9790 S.3   363  CYS363     -0.0800
    203  N         65.7090   26.8720    6.4200 N.am  364  ALA364     -0.1965
    204  CA        65.7130   26.7830    4.9690 C.3   364  ALA364      0.1728
    205  C         64.3480   26.3580    4.4270 C.2   364  ALA364      0.2616
    206  O         63.5390   25.7320    5.1340 O.2   364  ALA364     -0.2715
    207  CB        66.7180   25.7440    4.5110 C.3   364  ALA364      0.0334
    208  N         64.0630   26.7140    3.1760 N.am  365  VAL365     -0.1977
    209  CA        62.9100   26.2160    2.4550 C.3   365  VAL365      0.1596
    210  C         63.5740   25.6110    1.2260 C.2   365  VAL365      0.2287
    211  O         64.3560   26.2740    0.5620 O.2   365  VAL365     -0.2864
    212  CB        61.9940   27.3570    2.0720 C.3   365  VAL365      0.0276
    213  CG1       60.9070   26.8130    1.1860 C.3   365  VAL365      0.0022
    214  CG2       61.3680   27.9960    3.2910 C.3   365  VAL365      0.0022
@<TRIPOS>BOND
     1    73    74    1
     2   130   131    1
     3   133   132    2
     4    70    69    2
     5   132   131    1
     6    76    75    2
     7    28    29    1
     8   131   134    1
     9    77    74    1
    10    77    78    1
    11    74    75    1
    12    69    68    1
    13    99    98    2
    14    33    32    1
    15    29    32    1
    16    29    30    1
    17    75    85   am
    18    32    34    1
    19    72    71    1
    20    38    37    2
    21   134   135    1
    22    80    78   ar
    23    80    82   ar
    24    68    71    1
    25    68    67    1
    26    78    79   ar
    27    98    97    1
    28    85    86    1
    29    30    35   am
    30    30    31    2
    31    35    36    1
    32   211   210    2
    33    86    87    1
    34    86    89    1
    35    88    87    2
    36    62    61    2
    37    87    96   am
    38    37    36    1
    39    37    39   am
    40    40    39    1
    41    40    41    1
    42   135   136    2
    43   135   137   am
    44    96    97    1
    45   107   105    1
    46    82    83   ar
    47   213   212    1
    48   210   209    1
    49    67    61   am
    50    79    81   ar
    51    61    60    1
    52    50    49    2
    53   100   101    1
    54    89    90    1
    55    46    45    2
    56   104   105    1
    57   104   101    1
    58    42    41    2
    59    41    43   am
    60   212   209    1
    61   212   214    1
    62   105   106    1
    63    27    25    1
    64    83    81   ar
    65    83    84    1
    66   209   208    1
    67   138   139    1
    68   142   139    1
    69    49    48    1
    70    49    59   am
    71   101   102    1
    72    43    44    1
    73    60    59    1
    74    60    63    1
    75    48    47    1
    76    48    51    1
    77    45    44    1
    78    45    47   am
    79   208   205   am
    80    90    91    1
    81    65    63    1
    82   139   140    1
    83   102   103    2
    84   102   108   am
    85    25    26    1
    86    25    24    1
    87   141   140    2
    88    63    64    1
    89    91    92    1
    90    51    52    1
    91   140   143   am
    92   149   147    1
    93   108   109    1
    94   205   204    1
    95   205   206    2
    96   123   124    1
    97   123   120    1
    98   207   204    1
    99    24    21    1
   100   143   144    1
   101    54    52   ar
   102    54    56   ar
   103   126   124   ar
   104   126   128   ar
   105   204   203    1
   106   121   122    2
   107   121   120    1
   108   124   125   ar
   109    52    53   ar
   110    64    66    1
   111   109   112    1
   112   109   110    1
   113    92    93    2
   114   128   129   ar
   115   147   144    1
   116   147   148    1
   117   120   119    1
   118   144   145    1
   119   125   127   ar
   120   112   113    1
   121    23    22    2
   122    56    57   ar
   123   148   150    1
   124    21    22    1
   125    21    20    1
   126   129   127   ar
   127    53    55   ar
   128    94    93    1
   129    20    12   am
   130    93    95    1
   131   113   114    1
   132    16    18   ar
   133    16    15   ar
   134    18    19   ar
   135   110   111    2
   136   203   199   am
   137   200   199    2
   138   114   115    1
   139    57    55   ar
   140    57    58    1
   141   145   151   am
   142   145   146    2
   143   199   198    1
   144     4     3    2
   145   115   116    2
   146    19    17   ar
   147    15    14    1
   148    15    17   ar
   149    12    11    1
   150    12    13    2
   151   151   152    1
   152    11    14    1
   153    11    10    1
   154     3    10   am
   155     3     2    1
   156   198   201    1
   157   198   197    1
   158   116   118    1
   159   116   117    1
   160   152   153    1
   161   202   201    1
   162   154   153    2
   163     1     2    1
   164   153   155   am
   165     2     5    1
   166   164   163    1
   167   161   160    1
   168   161   162    1
   169     5     6    1
   170   160   159    1
   171     9     7   am
   172   163   162    2
   173   163   165    1
   174     6     7    1
   175     7     8    2
   176   155   156    1
   177   196   194    1
   178   156   159    1
   179   156   157    1
   180   194   195    1
   181   194   193    1
   182   184   183    2
   183   157   158    2
   184   193   190    1
   185   190   191    1
   186   190   189    1
   187   183   189   am
   188   183   182    1
   189   191   192    2
   190   187   186    1
   191   187   188    1
   192   185   182    1
   193   185   186    2
   194   173   171   ar
   195   182   181    1
   196   179   178    1
   197   181   176   am
   198   171   172   ar
   199   171   170    1
   200   176   175    1
   201   176   177    2
   202   178   175    1
   203   178   180    1
   204   175   174    1
   205   170   167    1
   206   167   166    1
   207   167   168    1
   208   169   168    2
