@<TRIPOS>MOLECULE
tmp/1typB03.pdb
 123 116 0 0 0
SMALL
GASTEIGER

@<TRIPOS>ATOM
      1  N         61.2580   10.0010   18.1110 N.3    12  GLY12      -0.1210
      2  CA        61.5920   10.9370   17.0540 C.3    12  GLY12       0.1956
      3  C         62.8830   11.7040   17.2460 C.2    12  GLY12       0.2612
      4  O         63.7800   11.2500   17.9270 O.2    12  GLY12      -0.2717
      5  N         63.0040   12.9210   16.7460 N.am   13  SER13      -0.1952
      6  CA        64.2420   13.6500   16.8180 C.3    13  SER13       0.1924
      7  C         64.5100   14.0360   18.2400 C.2    13  SER13       0.2314
      8  O         65.6250   13.8400   18.7260 O.2    13  SER13      -0.2863
      9  CB        64.1310   14.8670   15.9040 C.3    13  SER13       0.2116
     10  OG        64.3510   14.5800   14.5140 O.3    13  SER13      -0.2180
     11  N         64.4210   10.5670   20.7750 N.3    16  LEU16      -0.1231
     12  CA        65.5560    9.6930   20.6060 C.3    16  LEU16       0.1693
     13  C         66.7930   10.3460   21.1920 C.2    16  LEU16       0.2591
     14  O         67.5910    9.6780   21.8580 O.2    16  LEU16      -0.2718
     15  CB        65.6980    9.4170   19.1310 C.3    16  LEU16       0.0284
     16  CG        65.6420    8.0020   18.6760 C.3    16  LEU16       0.0019
     17  CD1       64.8210    7.1030   19.5800 C.3    16  LEU16       0.0001
     18  CD2       65.0830    8.0670   17.3100 C.3    16  LEU16       0.0001
     19  N         66.9250   11.6600   21.0340 N.am   17  GLU17      -0.1979
     20  CA        68.0130   12.4060   21.6450 C.3    17  GLU17       0.1602
     21  C         67.9920   12.2450   23.1730 C.2    17  GLU17       0.2287
     22  O         69.0030   11.9010   23.7920 O.2    17  GLU17      -0.2864
     23  CB        67.8320   13.8760   21.2400 C.3    17  GLU17       0.0415
     24  CG        68.9800   14.8350   21.5700 C.3    17  GLU17       0.1163
     25  CD        70.3240   14.4740   20.9440 C.2    17  GLU17       0.3649
     26  OE1       70.3930   13.9160   19.8420 O.co2  17  GLU17      -0.2457
     27  OE2       71.3260   14.7950   21.5740 O.co2  17  GLU17      -0.2457
     28  N         68.6480    8.4530   24.2710 N.3    20  TRP20      -0.1227
     29  CA        70.0140    7.9920   24.1720 C.3    20  TRP20       0.1737
     30  C         70.9340    8.7390   25.1470 C.2    20  TRP20       0.2595
     31  O         71.7980    8.1310   25.7730 O.2    20  TRP20      -0.2718
     32  CB        70.4700    8.1600   22.7090 C.3    20  TRP20       0.0564
     33  CG        71.8470    7.5640   22.5110 C.ar   20  TRP20       0.0003
     34  CD1       72.0390    6.2270   22.2660 C.ar   20  TRP20       0.0946
     35  CD2       73.0170    8.2270   22.6750 C.ar   20  TRP20       0.0152
     36  NE1       73.3400    6.0450   22.2750 N.ar   20  TRP20      -0.2442
     37  CE2       73.9510    7.2220   22.5040 C.ar   20  TRP20       0.0810
     38  CE3       73.3580    9.5320   22.9040 C.ar   20  TRP20       0.0012
     39  CZ2       75.2920    7.5030   22.6120 C.ar   20  TRP20       0.0191
     40  CZ3       74.7030    9.8270   23.0310 C.ar   20  TRP20       0.0001
     41  CH2       75.6520    8.8240   22.8660 C.ar   20  TRP20       0.0015
     42  N         70.8340   10.0510   25.3160 N.am   21  ASN21      -0.1974
     43  CA        71.7070   10.7360   26.2490 C.3    21  ASN21       0.1688
     44  C         71.4620   10.2900   27.6940 C.2    21  ASN21       0.2292
     45  O         72.4290   10.1050   28.4480 O.2    21  ASN21      -0.2864
     46  CB        71.5050   12.2350   26.1640 C.3    21  ASN21       0.1181
     47  CG        72.0010   12.8770   24.8810 C.2    21  ASN21       0.2629
     48  OD1       72.7470   12.3260   24.0800 O.2    21  ASN21      -0.2716
     49  ND2       71.5930   14.0920   24.6120 N.am   21  ASN21      -0.0877
     50  N         62.9440    7.2130   14.4970 N.3    48  GLY48      -0.1225
     51  CA        63.5200    8.3500   13.8220 C.3    48  GLY48       0.1811
     52  C         62.4320    9.3970   13.6670 C.2    48  GLY48       0.2280
     53  O         62.7270   10.5460   13.3280 O.2    48  GLY48      -0.2866
     54  N         61.0030   13.3480   10.9410 N.3    51  CYS51      -0.1221
     55  CA        62.1250   13.7770   10.1050 C.3    51  CYS51       0.1808
     56  C         62.6550   12.6700    9.2270 C.2    51  CYS51       0.2601
     57  O         62.6940   12.8270    8.0140 O.2    51  CYS51      -0.2717
     58  CB        63.2750   14.2640   10.9310 C.3    51  CYS51       0.0970
     59  SG        64.5320   15.1640    9.9740 S.3    51  CYS51      -0.0800
     60  N         63.0420   11.5290    9.7730 N.am   52  VAL52      -0.1979
     61  CA        63.6220   10.4280    9.0000 C.3    52  VAL52       0.1595
     62  C         62.6430    9.8270    8.0210 C.2    52  VAL52       0.2287
     63  O         62.9970    9.5170    6.8960 O.2    52  VAL52      -0.2864
     64  CB        64.0960    9.3010    9.9400 C.3    52  VAL52       0.0276
     65  CG1       64.4420    8.0750    9.1110 C.3    52  VAL52       0.0022
     66  CG2       65.2650    9.7620   10.7680 C.3    52  VAL52       0.0022
     67  N         64.3920   14.0580    5.7420 N.3    57  VAL57      -0.1301
     68  CA        65.2780   13.2130    4.9750 C.3    57  VAL57       0.1246
     69  C         64.5850   12.8060    3.6830 C.3    57  VAL57       0.2009
     70  O         65.1830   13.1590    2.6590 O.3    57  VAL57      -0.2188
     71  CB        65.6800   11.9970    5.8670 C.3    57  VAL57       0.0202
     72  CG1       66.4170   10.8810    5.0920 C.3    57  VAL57       0.0016
     73  CG2       66.5780   12.5380    6.9550 C.3    57  VAL57       0.0016
     74  N         68.1180    3.9130    7.7330 N.3   105  ILE105     -0.1245
     75  CA        68.1710    4.6940    8.9580 C.3   105  ILE105      0.1561
     76  C         67.3200    3.9690    9.9660 C.2   105  ILE105      0.2260
     77  O         67.7260    3.8420   11.1180 O.2   105  ILE105     -0.2867
     78  CB        67.6780    6.1310    8.6580 C.3   105  ILE105      0.0252
     79  CG1       68.6310    6.8100    7.6110 C.3   105  ILE105      0.0019
     80  CG2       67.7100    6.9520    9.9220 C.3   105  ILE105      0.0019
     81  CD1       68.2110    8.2030    7.0570 C.3   105  ILE105      0.0001
     82  N         68.7430    2.6000   13.6830 N.3   109  TYR109     -0.1298
     83  CA        68.2700    2.8050   15.0070 C.3   109  TYR109      0.1290
     84  C         67.9930    1.4740   15.6600 C.3   109  TYR109      0.2013
     85  O         68.2110    1.4750   16.8650 O.3   109  TYR109     -0.2188
     86  CB        67.0500    3.7110   14.9620 C.3   109  TYR109      0.0480
     87  CG        67.4120    5.1710   14.7390 C.ar  109  TYR109     -0.0204
     88  CD1       68.2760    5.7860   15.5840 C.ar  109  TYR109     -0.0009
     89  CD2       66.8900    5.8920   13.7040 C.ar  109  TYR109     -0.0009
     90  CE1       68.5850    7.1220   15.4560 C.ar  109  TYR109      0.0417
     91  CE2       67.1880    7.2240   13.5500 C.ar  109  TYR109      0.0417
     92  CZ        68.0600    7.8510   14.4220 C.ar  109  TYR109      0.1957
     93  OH        68.3940    9.1990   14.2640 O.3   109  TYR109     -0.2866
     94  N         71.1060    1.0280   17.3960 N.3   112  MET112     -0.1245
     95  CA        71.3030    1.8570   18.5710 C.3   112  MET112      0.1570
     96  C         70.6960    1.2630   19.8270 C.2   112  MET112      0.2261
     97  O         71.3620    1.1700   20.8490 O.2   112  MET112     -0.2867
     98  CB        70.6950    3.1880   18.3340 C.3   112  MET112      0.0387
     99  CG        71.0120    4.1940   19.4050 C.3   112  MET112      0.0595
    100  SD        70.4110    5.8180   18.8750 S.3   112  MET112     -0.1393
    101  CE        68.8220    5.8490   19.6530 C.3   112  MET112      0.0692
    102  N         63.4520   19.9940   13.3310 N.3   334  THR334     -0.1204
    103  CA        64.2140   18.9260   13.9430 C.3   334  THR334      0.1979
    104  C         65.3780   19.3730   14.8210 C.2   334  THR334      0.2459
    105  O         65.3680   18.9480   15.9820 O.2   334  THR334     -0.2732
    106  CB        64.6740   17.9580   12.8180 C.3   334  THR334      0.1783
    107  OG1       63.5180   17.1550   12.5880 O.3   334  THR334     -0.2211
    108  CG2       65.8230   17.0180   13.1580 C.3   334  THR334      0.0376
    109  N         66.3310   20.2430   14.4530 N.am  335  PRO335     -0.2728
    110  CA        67.3800   20.7340   15.3400 C.3   335  PRO335      0.1401
    111  C         66.8540   21.3180   16.6500 C.2   335  PRO335      0.2269
    112  O         67.4620   21.1840   17.7120 O.2   335  PRO335     -0.2865
    113  CB        68.0910   21.7470   14.4890 C.3   335  PRO335      0.0296
    114  CG        67.8890   21.2100   13.1280 C.3   335  PRO335      0.0237
    115  CD        66.4370   20.9030   13.1600 C.3   335  PRO335      0.0939
    116  N         65.8390   18.3840   18.8540 N.3   338  ILE338     -0.1245
    117  CA        67.0640   17.7350   19.3300 C.3   338  ILE338      0.1561
    118  C         67.7150   18.5450   20.4780 C.2   338  ILE338      0.2260
    119  O         68.1870   18.0010   21.4940 O.2   338  ILE338     -0.2867
    120  CB        68.0070   17.5980   18.1100 C.3   338  ILE338      0.0252
    121  CG1       67.5100   16.5200   17.1710 C.3   338  ILE338      0.0019
    122  CG2       69.4260   17.3060   18.5910 C.3   338  ILE338      0.0019
    123  CD1       68.4690   16.3650   15.9740 C.3   338  ILE338      0.0001
@<TRIPOS>BOND
     1    70    69    1
     2    69    68    1
     3    68    67    1
     4    68    71    1
     5    72    71    1
     6    71    73    1
     7    63    62    2
     8    81    79    1
     9    79    78    1
    10    74    75    1
    11    57    56    2
    12    62    61    1
    13    78    75    1
    14    78    80    1
    15    75    76    1
    16    61    60    1
    17    61    64    1
    18    65    64    1
    19    56    60   am
    20    56    55    1
    21    64    66    1
    22    76    77    2
    23    59    58    1
    24    55    58    1
    25    55    54    1
    26   107   106    1
    27   106   108    1
    28   106   103    1
    29   114   115    1
    30   114   113    1
    31   115   109    1
    32    53    52    2
    33   102   103    1
    34    91    89   ar
    35    91    92   ar
    36    52    51    1
    37    82    83    1
    38    89    87   ar
    39    51    50    1
    40   103   104    1
    41    93    92    1
    42    92    90   ar
    43   109   104   am
    44   109   110    1
    45   113   110    1
    46    10     9    1
    47    87    86    1
    48    87    88   ar
    49   104   105    2
    50    86    83    1
    51    83    84    1
    52   110   111    1
    53    90    88   ar
    54    84    85    1
    55     9     6    1
    56   123   121    1
    57   111   112    2
    58     5     6    1
    59     5     3   am
    60     6     7    1
    61     2     3    1
    62     2     1    1
    63   121   120    1
    64     3     4    2
    65    18    16    1
    66    94    95    1
    67   120   122    1
    68   120   117    1
    69     7     8    2
    70    98    95    1
    71    98    99    1
    72    95    96    1
    73    16    15    1
    74    16    17    1
    75   116   117    1
    76   100    99    1
    77   100   101    1
    78    15    12    1
    79   117   118    1
    80    96    97    2
    81    26    25   ar
    82   118   119    2
    83    12    11    1
    84    12    13    1
    85    25    24    1
    86    25    27   ar
    87    19    13   am
    88    19    20    1
    89    13    14    2
    90    23    24    1
    91    23    20    1
    92    20    21    1
    93    34    36   ar
    94    34    33   ar
    95    36    37   ar
    96    37    39   ar
    97    37    35   ar
    98    33    35   ar
    99    33    32    1
   100    39    41   ar
   101    35    38   ar
   102    32    29    1
   103    41    40   ar
   104    38    40   ar
   105    21    22    2
   106    48    47    2
   107    29    28    1
   108    29    30    1
   109    49    47   am
   110    47    46    1
   111    30    42   am
   112    30    31    2
   113    42    43    1
   114    46    43    1
   115    43    44    1
   116    44    45    2
