@<TRIPOS>MOLECULE
tmp/1typB04.pdb
 92 85 0 0 0
SMALL
GASTEIGER

@<TRIPOS>ATOM
      1  N         61.0030   13.3480   10.9410 N.3    51  CYS51      -0.1221
      2  CA        62.1250   13.7770   10.1050 C.3    51  CYS51       0.1808
      3  C         62.6550   12.6700    9.2270 C.2    51  CYS51       0.2601
      4  O         62.6940   12.8270    8.0140 O.2    51  CYS51      -0.2717
      5  CB        63.2750   14.2640   10.9310 C.3    51  CYS51       0.0970
      6  SG        64.5320   15.1640    9.9740 S.3    51  CYS51      -0.0800
      7  N         63.0420   11.5290    9.7730 N.am   52  VAL52      -0.1979
      8  CA        63.6220   10.4280    9.0000 C.3    52  VAL52       0.1595
      9  C         62.6430    9.8270    8.0210 C.2    52  VAL52       0.2287
     10  O         62.9970    9.5170    6.8960 O.2    52  VAL52      -0.2864
     11  CB        64.0960    9.3010    9.9400 C.3    52  VAL52       0.0276
     12  CG1       64.4420    8.0750    9.1110 C.3    52  VAL52       0.0022
     13  CG2       65.2650    9.7620   10.7680 C.3    52  VAL52       0.0022
     14  N         64.3920   14.0580    5.7420 N.3    57  VAL57      -0.1301
     15  CA        65.2780   13.2130    4.9750 C.3    57  VAL57       0.1246
     16  C         64.5850   12.8060    3.6830 C.3    57  VAL57       0.2009
     17  O         65.1830   13.1590    2.6590 O.3    57  VAL57      -0.2188
     18  CB        65.6800   11.9970    5.8670 C.3    57  VAL57       0.0202
     19  CG1       66.4170   10.8810    5.0920 C.3    57  VAL57       0.0016
     20  CG2       66.5780   12.5380    6.9550 C.3    57  VAL57       0.0016
     21  N         64.0590   15.8800    1.1770 N.3    60  LYS60      -0.1245
     22  CA        65.2690   16.4530    0.5850 C.3    60  LYS60       0.1561
     23  C         65.8160   15.5460   -0.5290 C.2    60  LYS60       0.2260
     24  O         66.3240   16.0620   -1.5320 O.2    60  LYS60      -0.2867
     25  CB        66.2930   16.6360    1.6920 C.3    60  LYS60       0.0271
     26  CG        67.6600   17.0980    1.2620 C.3    60  LYS60       0.0035
     27  CD        67.4810   18.5530    0.9580 C.3    60  LYS60       0.0206
     28  CE        68.7450   19.1220    0.3530 C.3    60  LYS60       0.1093
     29  NZ        69.7600   19.3240    1.3540 N.3    60  LYS60      -0.1314
     30  N         68.1180    3.9130    7.7330 N.3   105  ILE105     -0.1245
     31  CA        68.1710    4.6940    8.9580 C.3   105  ILE105      0.1561
     32  C         67.3200    3.9690    9.9660 C.2   105  ILE105      0.2260
     33  O         67.7260    3.8420   11.1180 O.2   105  ILE105     -0.2867
     34  CB        67.6780    6.1310    8.6580 C.3   105  ILE105      0.0252
     35  CG1       68.6310    6.8100    7.6110 C.3   105  ILE105      0.0019
     36  CG2       67.7100    6.9520    9.9220 C.3   105  ILE105      0.0019
     37  CD1       68.2110    8.2030    7.0570 C.3   105  ILE105      0.0001
     38  N         67.0610    0.8430   10.2900 N.3   107  ASP107     -0.1225
     39  CA        67.8650   -0.2370   10.7660 C.3   107  ASP107      0.1805
     40  C         69.0330    0.2510   11.5790 C.2   107  ASP107      0.2598
     41  O         69.4300   -0.3700   12.5690 O.2   107  ASP107     -0.2718
     42  CB        68.1920   -1.0490    9.5180 C.3   107  ASP107      0.1424
     43  CG        66.9050   -1.7750    9.0470 C.2   107  ASP107      0.3668
     44  OD1       66.2100   -2.3900    9.8660 O.co2 107  ASP107     -0.2456
     45  OD2       66.5650   -1.7330    7.8670 O.co2 107  ASP107     -0.2456
     46  N         69.5180    1.4350   11.3030 N.am  108  SER108     -0.1938
     47  CA        70.5100    2.0490   12.1270 C.3   108  SER108      0.2055
     48  C         70.0080    2.1950   13.5350 C.2   108  SER108      0.2639
     49  O         70.7560    1.8850   14.4850 O.2   108  SER108     -0.2714
     50  CB        70.8470    3.3950   11.5920 C.3   108  SER108      0.2130
     51  OG        72.1880    3.0890   11.2770 O.3   108  SER108     -0.2179
     52  N         68.7430    2.6000   13.6830 N.am  109  TYR109     -0.2026
     53  CA        68.2700    2.8050   15.0070 C.3   109  TYR109      0.1326
     54  C         67.9930    1.4740   15.6600 C.3   109  TYR109      0.2039
     55  O         68.2110    1.4750   16.8650 O.3   109  TYR109     -0.2185
     56  CB        67.0500    3.7110   14.9620 C.3   109  TYR109      0.0507
     57  CG        67.4120    5.1710   14.7390 C.ar  109  TYR109     -0.0202
     58  CD1       68.2760    5.7860   15.5840 C.ar  109  TYR109     -0.0009
     59  CD2       66.8900    5.8920   13.7040 C.ar  109  TYR109     -0.0009
     60  CE1       68.5850    7.1220   15.4560 C.ar  109  TYR109      0.0417
     61  CE2       67.1880    7.2240   13.5500 C.ar  109  TYR109      0.0417
     62  CZ        68.0600    7.8510   14.4220 C.ar  109  TYR109      0.1957
     63  OH        68.3940    9.1990   14.2640 O.3   109  TYR109     -0.2866
     64  N         69.9370   -0.9060   15.6710 N.3   111  GLY111     -0.1210
     65  CA        71.2630   -1.1040   16.1690 C.3   111  GLY111      0.1956
     66  C         71.5140   -0.2330   17.3890 C.2   111  GLY111      0.2611
     67  O         72.0610   -0.7150   18.3770 O.2   111  GLY111     -0.2717
     68  N         71.1060    1.0280   17.3960 N.am  112  MET112     -0.1979
     69  CA        71.3030    1.8570   18.5710 C.3   112  MET112      0.1605
     70  C         70.6960    1.2630   19.8270 C.2   112  MET112      0.2287
     71  O         71.3620    1.1700   20.8490 O.2   112  MET112     -0.2864
     72  CB        70.6950    3.1880   18.3340 C.3   112  MET112      0.0413
     73  CG        71.0120    4.1940   19.4050 C.3   112  MET112      0.0598
     74  SD        70.4110    5.8180   18.8750 S.3   112  MET112     -0.1393
     75  CE        68.8220    5.8490   19.6530 C.3   112  MET112      0.0692
     76  N         72.5320   -1.7410   21.1090 N.3   115  ASP115     -0.1239
     77  CA        73.8440   -1.5280   21.6680 C.3   115  ASP115      0.1674
     78  C         73.8480   -0.5460   22.8320 C.2   115  ASP115      0.2266
     79  O         74.9350   -0.1990   23.3160 O.2   115  ASP115     -0.2867
     80  CB        74.8000   -1.0150   20.5800 C.3   115  ASP115      0.1410
     81  CG        75.0940   -1.9300   19.3870 C.2   115  ASP115      0.3668
     82  OD1       75.0350   -3.1650   19.4870 O.co2 115  ASP115     -0.2456
     83  OD2       75.4020   -1.3750   18.3310 O.co2 115  ASP115     -0.2456
     84  N         72.8250   26.1650    2.7150 N.3   435  GLU435     -0.1245
     85  CA        74.1970   25.9820    3.1840 C.3   435  GLU435      0.1567
     86  C         74.8670   27.2510    3.6670 C.2   435  GLU435      0.2260
     87  O         75.5860   27.2340    4.6530 O.2   435  GLU435     -0.2867
     88  CB        75.0820   25.4140    2.0900 C.3   435  GLU435      0.0388
     89  CG        74.7360   24.0800    1.4930 C.3   435  GLU435      0.1160
     90  CD        74.8230   22.9040    2.4570 C.2   435  GLU435      0.3649
     91  OE1       75.6460   22.9280    3.3880 O.co2 435  GLU435     -0.2457
     92  OE2       74.0750   21.9380    2.2600 O.co2 435  GLU435     -0.2457
@<TRIPOS>BOND
     1    24    23    2
     2    23    22    1
     3    28    27    1
     4    28    29    1
     5    22    21    1
     6    22    25    1
     7    27    26    1
     8    26    25    1
     9    89    88    1
    10    89    90    1
    11    88    85    1
    12    92    90   ar
    13    90    91   ar
    14    17    16    1
    15    84    85    1
    16    85    86    1
    17    86    87    2
    18    16    15    1
    19    15    14    1
    20    15    18    1
    21    19    18    1
    22    18    20    1
    23    10     9    2
    24    37    35    1
    25    35    34    1
    26    30    31    1
    27    45    43   ar
    28     4     3    2
    29     9     8    1
    30    34    31    1
    31    34    36    1
    32    31    32    1
    33     8     7    1
    34     8    11    1
    35    43    42    1
    36    43    44   ar
    37    12    11    1
    38     3     7   am
    39     3     2    1
    40    42    39    1
    41    11    13    1
    42    32    33    2
    43     6     5    1
    44     2     5    1
    45     2     1    1
    46    38    39    1
    47    39    40    1
    48    51    50    1
    49    46    40   am
    50    46    47    1
    51    40    41    2
    52    50    47    1
    53    47    48    1
    54    48    52   am
    55    48    49    2
    56    61    59   ar
    57    61    62   ar
    58    52    53    1
    59    59    57   ar
    60    63    62    1
    61    62    60   ar
    62    57    56    1
    63    57    58   ar
    64    56    53    1
    65    53    54    1
    66    60    58   ar
    67    54    55    1
    68    64    65    1
    69    65    66    1
    70    66    68   am
    71    66    67    2
    72    68    69    1
    73    83    81   ar
    74    72    69    1
    75    72    73    1
    76    69    70    1
    77    74    73    1
    78    74    75    1
    79    81    82   ar
    80    81    80    1
    81    70    71    2
    82    80    77    1
    83    76    77    1
    84    77    78    1
    85    78    79    2
