@<TRIPOS>MOLECULE
tmp/1typB00.pdb
 81 82 0 0 0
SMALL
GASTEIGER

@<TRIPOS>ATOM
      1  N         71.1220   39.8940   -8.0550 N.3   395  PHE395     -0.1227
      2  CA        71.9100   39.7460   -9.2550 C.3   395  PHE395      0.1736
      3  C         71.6130   38.3890   -9.8600 C.2   395  PHE395      0.2596
      4  O         71.2410   37.4740   -9.1310 O.2   395  PHE395     -0.2718
      5  CB        73.3860   39.8650   -8.8900 C.3   395  PHE395      0.0547
      6  CG        73.8820   38.7900   -7.9260 C.ar  395  PHE395     -0.0202
      7  CD1       73.7810   38.9920   -6.5490 C.ar  395  PHE395     -0.0042
      8  CD2       74.4090   37.6020   -8.4420 C.ar  395  PHE395     -0.0042
      9  CE1       74.2110   37.9720   -5.7120 C.ar  395  PHE395     -0.0003
     10  CE2       74.8300   36.5990   -7.6000 C.ar  395  PHE395     -0.0003
     11  CZ        74.7260   36.7880   -6.2360 C.ar  395  PHE395     -0.0000
     12  N         71.7120   38.2030  -11.1650 N.am  396  THR396     -0.1939
     13  CA        71.6110   36.8710  -11.7400 C.3   396  THR396      0.2013
     14  C         73.0190   36.3250  -11.5730 C.2   396  THR396      0.2484
     15  O         73.9690   37.0510  -11.8880 O.2   396  THR396     -0.2729
     16  CB        71.2450   36.9090  -13.2370 C.3   396  THR396      0.1807
     17  OG1       70.0370   37.6560  -13.3200 O.3   396  THR396     -0.2208
     18  CG2       70.8600   35.5700  -13.8320 C.3   396  THR396      0.0379
     19  N         73.2320   35.1190  -11.0220 N.am  397  PRO397     -0.2715
     20  CA        74.5430   34.4830  -10.9150 C.3   397  PRO397      0.1536
     21  C         75.0400   34.2230  -12.3210 C.2   397  PRO397      0.2598
     22  O         74.2390   33.7460  -13.1310 O.2   397  PRO397     -0.2715
     23  CB        74.2400   33.2650  -10.1260 C.3   397  PRO397      0.0310
     24  CG        73.0260   33.6570   -9.3250 C.3   397  PRO397      0.0237
     25  CD        72.2060   34.3210  -10.3800 C.3   397  PRO397      0.0939
     26  N         76.3260   34.4050  -12.6580 N.am  398  LEU398     -0.1978
     27  CA        76.7340   34.4080  -14.0810 C.3   398  LEU398      0.1596
     28  C         76.4390   33.1420  -14.8320 C.2   398  LEU398      0.2287
     29  O         76.0340   33.2360  -15.9920 O.2   398  LEU398     -0.2864
     30  CB        78.2550   34.6470  -14.3500 C.3   398  LEU398      0.0297
     31  CG        78.7450   35.7270  -15.4150 C.3   398  LEU398      0.0022
     32  CD1       80.1780   35.3870  -15.7810 C.3   398  LEU398      0.0001
     33  CD2       77.9230   35.7490  -16.7120 C.3   398  LEU398      0.0001
     34  N         85.7950   34.8400   -4.1530 N.3   460  HIS460     -0.1227
     35  CA        85.2420   35.1000   -5.4610 C.3   460  HIS460      0.1737
     36  C         85.7170   33.9690   -6.3350 C.2   460  HIS460      0.2438
     37  O         86.8980   33.6280   -6.2390 O.2   460  HIS460     -0.2733
     38  CB        85.7920   36.4400   -5.9950 C.3   460  HIS460      0.0758
     39  CG        85.2670   37.0370   -7.3020 C.ar  460  HIS460      0.0818
     40  ND1       84.0760   37.5480   -7.6600 N.ar  460  HIS460     -0.2268
     41  CD2       86.0660   37.1290   -8.4110 C.ar  460  HIS460      0.1154
     42  CE1       84.1350   37.9250   -8.9180 C.ar  460  HIS460      0.1986
     43  NE2       85.3390   37.6700   -9.3630 N.ar  460  HIS460     -0.2212
     44  N         84.9220   33.4490   -7.2660 N.am  461  PRO461     -0.2718
     45  CA        83.5360   33.8810   -7.5280 C.3   461  PRO461      0.1535
     46  C         82.4690   33.0150   -6.8300 C.2   461  PRO461      0.2599
     47  O         82.4220   31.8040   -7.0380 O.2   461  PRO461     -0.2715
     48  CB        83.5200   33.8930   -9.0690 C.3   461  PRO461      0.0310
     49  CG        84.8600   33.3740   -9.5560 C.3   461  PRO461      0.0237
     50  CD        85.4310   32.6180   -8.3490 C.3   461  PRO461      0.0939
     51  N         81.6600   33.5390   -5.9100 N.am  462  THR462     -0.1937
     52  CA        80.6630   32.7570   -5.1890 C.3   462  THR462      0.2028
     53  C         79.4680   33.6580   -4.9790 C.2   462  THR462      0.2642
     54  O         79.6690   34.8690   -4.9620 O.2   462  THR462     -0.2714
     55  CB        81.0970   32.2870   -3.7460 C.3   462  THR462      0.1808
     56  OG1       81.2060   33.4210   -2.8880 O.3   462  THR462     -0.2208
     57  CG2       82.4170   31.5770   -3.7320 C.3   462  THR462      0.0379
     58  N         78.2220   33.2430   -4.7300 N.am  463  SER463     -0.1949
     59  CA        77.1570   34.2180   -4.4190 C.3   463  SER463      0.1924
     60  C         77.3140   34.8260   -3.0260 C.2   463  SER463      0.2314
     61  O         77.0320   35.9970   -2.7700 O.2   463  SER463     -0.2863
     62  CB        75.8110   33.5430   -4.4720 C.3   463  SER463      0.2116
     63  OG        75.6320   32.9810   -5.7620 O.3   463  SER463     -0.2180
     64  N         79.7300   35.8610   -1.3880 N.3   465  GLU465     -0.1231
     65  CA        80.5100   37.0480   -1.1220 C.3   465  GLU465      0.1699
     66  C         79.6460   38.2920   -1.2260 C.2   465  GLU465      0.2592
     67  O         80.0520   39.3080   -0.6840 O.2   465  GLU465     -0.2718
     68  CB        81.7000   37.1560   -2.0680 C.3   465  GLU465      0.0402
     69  CG        81.3340   37.3640   -3.5270 C.3   465  GLU465      0.1161
     70  CD        82.4590   37.4720   -4.5550 C.2   465  GLU465      0.3649
     71  OE1       83.4610   38.1220   -4.2510 O.co2 465  GLU465     -0.2457
     72  OE2       82.3000   36.9200   -5.6600 O.co2 465  GLU465     -0.2457
     73  N         78.4240   38.2840   -1.7720 N.am  466  GLU466     -0.1979
     74  CA        77.5920   39.4850   -1.7670 C.3   466  GLU466      0.1602
     75  C         77.2210   39.9480   -0.3760 C.2   466  GLU466      0.2287
     76  O         77.1030   41.1470   -0.1150 O.2   466  GLU466     -0.2864
     77  CB        76.3630   39.2250   -2.5770 C.3   466  GLU466      0.0415
     78  CG        76.5870   39.7470   -4.0070 C.3   466  GLU466      0.1163
     79  CD        77.8780   39.4170   -4.7840 C.2   466  GLU466      0.3649
     80  OE1       78.0510   38.2760   -5.2260 O.co2 466  GLU466     -0.2457
     81  OE2       78.7090   40.3130   -4.9760 O.co2 466  GLU466     -0.2457
@<TRIPOS>BOND
     1    33    31    1
     2    29    28    2
     3    32    31    1
     4    31    30    1
     5    28    27    1
     6    30    27    1
     7    27    26    1
     8    18    16    1
     9    17    16    1
    10    16    13    1
    11    22    21    2
    12    26    21   am
    13    21    20    1
    14    15    14    2
    15    13    14    1
    16    13    12    1
    17    14    19   am
    18    12     3   am
    19    19    20    1
    20    19    25    1
    21    20    23    1
    22    25    24    1
    23    23    24    1
    24     3     2    1
    25     3     4    2
    26    49    48    1
    27    49    50    1
    28    43    42   ar
    29    43    41   ar
    30     2     5    1
    31     2     1    1
    32    48    45    1
    33    42    40   ar
    34     5     6    1
    35     8     6   ar
    36     8    10   ar
    37    41    39   ar
    38    50    44    1
    39     6     7   ar
    40    40    39   ar
    41    10    11   ar
    42    45    44    1
    43    45    46    1
    44    39    38    1
    45    44    36   am
    46    47    46    2
    47    46    51   am
    48     7     9   ar
    49    36    37    2
    50    36    35    1
    51    11     9   ar
    52    38    35    1
    53    51    52    1
    54    63    62    1
    55    72    70   ar
    56    35    34    1
    57    80    79   ar
    58    52    53    1
    59    52    55    1
    60    53    54    2
    61    53    58   am
    62    81    79   ar
    63    79    78    1
    64    58    59    1
    65    70    71   ar
    66    70    69    1
    67    62    59    1
    68    59    60    1
    69    78    77    1
    70    55    57    1
    71    55    56    1
    72    69    68    1
    73    60    61    2
    74    77    74    1
    75    68    65    1
    76    73    74    1
    77    73    66   am
    78    74    75    1
    79    64    65    1
    80    66    65    1
    81    66    67    2
    82    75    76    2
