@<TRIPOS>MOLECULE
tmp/1tyqA00.pdb
 156 147 0 0 0
SMALL
GASTEIGER

@<TRIPOS>ATOM
      1  N         19.7430   17.7720   47.6600 N.3    12  GLY12      -0.1210
      2  CA        19.5170   16.8670   46.5530 C.3    12  GLY12       0.1956
      3  C         19.4490   15.4370   47.0340 C.2    12  GLY12       0.2613
      4  O         19.7150   15.1390   48.2040 O.2    12  GLY12      -0.2717
      5  N         19.0950   14.5380   46.1310 N.am   13  THR13      -0.1938
      6  CA        18.9930   13.1390   46.5020 C.3    13  THR13       0.2028
      7  C         20.3570   12.5990   46.9200 C.2    13  THR13       0.2643
      8  O         20.4600   11.7980   47.8460 O.2    13  THR13      -0.2714
      9  CB        18.4470   12.2950   45.3330 C.3    13  THR13       0.1808
     10  OG1       17.1600   12.7950   44.9340 O.3    13  THR13      -0.2208
     11  CG2       18.3160   10.8490   45.7550 C.3    13  THR13       0.0379
     12  N         21.4100   13.0440   46.2430 N.am   14  GLY14      -0.1939
     13  CA        22.7350   12.5560   46.5790 C.3    14  GLY14       0.2014
     14  C         23.6200   13.5280   47.3250 C.2    14  GLY14       0.2638
     15  O         24.3080   13.1560   48.2690 O.2    14  GLY14      -0.2714
     16  N         23.6020   14.7820   46.9010 N.am   15  TYR15      -0.1973
     17  CA        24.4260   15.8000   47.5210 C.3    15  TYR15       0.1639
     18  C         23.6370   17.0340   47.9030 C.2    15  TYR15       0.2290
     19  O         22.6510   17.3780   47.2470 O.2    15  TYR15      -0.2864
     20  CB        25.5400   16.2120   46.5660 C.3    15  TYR15       0.0560
     21  CG        26.3910   15.0600   46.1200 C.ar   15  TYR15      -0.0198
     22  CD1       25.9140   14.1330   45.1960 C.ar   15  TYR15      -0.0009
     23  CD2       27.6510   14.8620   46.6640 C.ar   15  TYR15      -0.0009
     24  CE1       26.6750   13.0320   44.8330 C.ar   15  TYR15       0.0417
     25  CE2       28.4190   13.7740   46.3100 C.ar   15  TYR15       0.0417
     26  CZ        27.9290   12.8610   45.3980 C.ar   15  TYR15       0.1957
     27  OH        28.6910   11.7670   45.0670 O.3    15  TYR15      -0.2866
     28  N         24.0710   21.1460   48.6840 N.3    17  LYS17      -0.1245
     29  CA        24.9220   22.2970   48.4550 C.3    17  LYS17       0.1561
     30  C         24.4970   23.4230   49.4010 C.2    17  LYS17       0.2260
     31  O         23.3570   23.8680   49.3660 O.2    17  LYS17      -0.2867
     32  CB        24.7960   22.7360   46.9880 C.3    17  LYS17       0.0271
     33  CG        25.5120   21.8430   45.9630 C.3    17  LYS17       0.0035
     34  CD        24.9080   20.4380   45.7620 C.3    17  LYS17       0.0206
     35  CE        23.5320   20.4770   45.1010 C.3    17  LYS17       0.1093
     36  NZ        23.0820   19.1380   44.5930 N.3    17  LYS17      -0.1314
     37  N         14.4840   13.2900   45.1350 N.3    68  GLY68      -0.1225
     38  CA        14.4610   14.7120   45.4140 C.3    68  GLY68       0.1811
     39  C         13.4460   15.1690   46.4450 C.2    68  GLY68       0.2280
     40  O         13.3480   16.3610   46.7280 O.2    68  GLY68      -0.2866
     41  N         17.4530   18.6490   34.0080 N.3   156  ASP156     -0.1239
     42  CA        18.0600   18.4060   35.2950 C.3   156  ASP156      0.1674
     43  C         18.3820   16.9280   35.4340 C.2   156  ASP156      0.2266
     44  O         17.4900   16.0750   35.4700 O.2   156  ASP156     -0.2867
     45  CB        17.1170   18.8350   36.4160 C.3   156  ASP156      0.1410
     46  CG        17.8450   19.0710   37.7280 C.2   156  ASP156      0.3668
     47  OD1       18.1140   20.2560   38.0500 O.co2 156  ASP156     -0.2456
     48  OD2       18.1580   18.0700   38.4240 O.co2 156  ASP156     -0.2456
     49  N         20.7910   14.6330   37.8650 N.3   158  GLY158     -0.1210
     50  CA        21.6860   14.5740   38.9940 C.3   158  GLY158      0.1956
     51  C         22.1370   13.1670   39.2870 C.2   158  GLY158      0.2612
     52  O         23.0680   12.6670   38.6660 O.2   158  GLY158     -0.2717
     53  N         21.4590   12.5130   40.2190 N.am  159  ASP159     -0.1959
     54  CA        21.8390   11.1670   40.6160 C.3   159  ASP159      0.1840
     55  C         20.6940   10.1640   40.4910 C.2   159  ASP159      0.2623
     56  O         20.9110    9.0130   40.1140 O.2   159  ASP159     -0.2715
     57  CB        22.3470   11.2190   42.0560 C.3   159  ASP159      0.1450
     58  CG        23.5210   10.3030   42.2920 C.2   159  ASP159      0.3671
     59  OD1       24.2000    9.9370   41.3040 O.co2 159  ASP159     -0.2456
     60  OD2       23.7710    9.9660   43.4690 O.co2 159  ASP159     -0.2456
     61  N         19.4770   10.6030   40.8010 N.am  160  GLY160     -0.1940
     62  CA        18.3350    9.7120   40.7200 C.3   160  GLY160      0.2014
     63  C         17.8730    9.4750   39.2950 C.2   160  GLY160      0.2638
     64  O         18.3980    8.6130   38.6010 O.2   160  GLY160     -0.2714
     65  N         16.8780   10.2470   38.8710 N.am  161  VAL161     -0.1977
     66  CA        16.3110   10.1710   37.5260 C.3   161  VAL161      0.1596
     67  C         16.4590   11.5590   36.8880 C.2   161  VAL161      0.2287
     68  O         16.4890   12.5710   37.5940 O.2   161  VAL161     -0.2864
     69  CB        14.8010    9.7900   37.5850 C.3   161  VAL161      0.0276
     70  CG1       14.1130   10.0900   36.2580 C.3   161  VAL161      0.0022
     71  CG2       14.6470    8.3140   37.9250 C.3   161  VAL161      0.0022
     72  N         15.2120   14.7820   34.5740 N.3   163  HIS163     -0.1241
     73  CA        13.9400   15.4220   34.2910 C.3   163  HIS163      0.1621
     74  C         13.9860   16.4980   33.2130 C.2   163  HIS163      0.2264
     75  O         14.8380   17.3850   33.2350 O.2   163  HIS163     -0.2867
     76  CB        13.3690   16.0460   35.5740 C.3   163  HIS163      0.0745
     77  CG        13.3740   15.1250   36.7570 C.ar  163  HIS163      0.0817
     78  ND1       14.4460   15.0240   37.6210 N.ar  163  HIS163     -0.2268
     79  CD2       12.4410   14.2570   37.2150 C.ar  163  HIS163      0.1154
     80  CE1       14.1710   14.1330   38.5590 C.ar  163  HIS163      0.1986
     81  NE2       12.9620   13.6530   38.3350 N.ar  163  HIS163     -0.2212
     82  N         23.2100    9.9290   36.8530 N.3   184  GLY184     -0.1225
     83  CA        24.5460    9.7050   37.3670 C.3   184  GLY184      0.1811
     84  C         24.8580    8.2970   37.8270 C.2   184  GLY184      0.2280
     85  O         25.8750    7.7350   37.4320 O.2   184  GLY184     -0.2866
     86  N         33.0060    5.4870   39.3900 N.3   212  LYS212     -0.1245
     87  CA        32.5830    6.8700   39.5490 C.3   212  LYS212      0.1561
     88  C         33.7280    7.8530   39.2860 C.2   212  LYS212      0.2260
     89  O         33.5020    8.9430   38.7590 O.2   212  LYS212     -0.2867
     90  CB        32.0050    7.0910   40.9500 C.3   212  LYS212      0.0271
     91  CG        31.3720    8.4560   41.1400 C.3   212  LYS212      0.0035
     92  CD        31.1460    8.7370   42.6040 C.3   212  LYS212      0.0206
     93  CE        30.7570   10.1860   42.8420 C.3   212  LYS212      0.1093
     94  NZ        30.9840   10.5220   44.2680 N.3   212  LYS212     -0.1314
     95  N         34.3100    7.9250   35.5650 N.3   215  LYS215     -0.1231
     96  CA        33.1890    8.6350   34.9490 C.3   215  LYS215      0.1693
     97  C         33.3860   10.1530   34.9160 C.2   215  LYS215      0.2591
     98  O         33.1120   10.8060   33.9040 O.2   215  LYS215     -0.2718
     99  CB        31.8840    8.3310   35.6950 C.3   215  LYS215      0.0285
    100  CG        30.6840    9.1210   35.1590 C.3   215  LYS215      0.0035
    101  CD        29.4210    8.9380   35.9890 C.3   215  LYS215      0.0206
    102  CE        29.4370    9.7990   37.2440 C.3   215  LYS215      0.1093
    103  NZ        28.1610    9.7100   38.0170 N.3   215  LYS215     -0.1314
    104  N         33.8580   10.7080   36.0310 N.am  216  GLU216     -0.1979
    105  CA        34.0620   12.1520   36.1630 C.3   216  GLU216      0.1602
    106  C         35.4270   12.6570   35.7300 C.2   216  GLU216      0.2287
    107  O         35.6050   13.8610   35.5600 O.2   216  GLU216     -0.2864
    108  CB        33.8290   12.5800   37.6150 C.3   216  GLU216      0.0415
    109  CG        32.4240   12.3400   38.1370 C.3   216  GLU216      0.1163
    110  CD        32.3510   12.4790   39.6410 C.2   216  GLU216      0.3649
    111  OE1       31.2400   12.3880   40.1980 O.co2 216  GLU216     -0.2457
    112  OE2       33.4160   12.6670   40.2640 O.co2 216  GLU216     -0.2457
    113  N         22.8930   20.1270   36.9660 N.3   310  GLY310     -0.1210
    114  CA        23.2110   18.8370   37.5360 C.3   310  GLY310      0.1956
    115  C         24.5730   18.3160   37.1490 C.2   310  GLY310      0.2612
    116  O         25.1390   18.6720   36.0990 O.2   310  GLY310     -0.2717
    117  N         25.1010   17.4480   38.0020 N.am  311  GLY311     -0.1942
    118  CA        26.4110   16.8870   37.7480 C.3   311  GLY311      0.2014
    119  C         26.4490   15.9780   36.5390 C.2   311  GLY311      0.2639
    120  O         27.4530   15.9400   35.8360 O.2   311  GLY311     -0.2714
    121  N         25.3630   15.2510   36.2900 N.am  312  SER312     -0.1949
    122  CA        25.3040   14.3190   35.1670 C.3   312  SER312      0.1924
    123  C         25.3120   14.9410   33.7860 C.2   312  SER312      0.2314
    124  O         25.4860   14.2360   32.7970 O.2   312  SER312     -0.2863
    125  CB        24.0890   13.4030   35.2990 C.3   312  SER312      0.2116
    126  OG        24.3660   12.3640   36.2190 O.3   312  SER312     -0.2180
    127  N         27.4580   17.2770   33.0880 N.3   314  MET314     -0.1230
    128  CA        28.8120   17.8220   33.0090 C.3   314  MET314      0.1702
    129  C         29.7330   17.2020   31.9530 C.2   314  MET314      0.2592
    130  O         30.8010   17.7460   31.6700 O.2   314  MET314     -0.2718
    131  CB        29.4880   17.7380   34.3840 C.3   314  MET314      0.0401
    132  CG        28.9840   18.7640   35.4130 C.3   314  MET314      0.0596
    133  SD        29.1790   20.4940   34.8540 S.3   314  MET314     -0.1393
    134  CE        30.7830   20.9250   35.5990 C.3   314  MET314      0.0692
    135  N         29.3320   16.0700   31.3810 N.am  315  PHE315     -0.1976
    136  CA        30.1460   15.4010   30.3600 C.3   315  PHE315      0.1639
    137  C         30.4100   16.3140   29.1690 C.2   315  PHE315      0.2290
    138  O         29.4920   16.9240   28.6240 O.2   315  PHE315     -0.2864
    139  CB        29.4490   14.1380   29.8550 C.3   315  PHE315      0.0560
    140  CG        29.1520   13.1430   30.9270 C.ar  315  PHE315     -0.0200
    141  CD1       30.1780   12.4410   31.5450 C.ar  315  PHE315     -0.0042
    142  CD2       27.8390   12.8980   31.3160 C.ar  315  PHE315     -0.0042
    143  CE1       29.9040   11.5100   32.5310 C.ar  315  PHE315     -0.0003
    144  CE2       27.5540   11.9650   32.3050 C.ar  315  PHE315     -0.0003
    145  CZ        28.5890   11.2700   32.9120 C.ar  315  PHE315     -0.0000
    146  N         27.5430   22.3160   37.3770 N.3   355  ARG355     -0.1245
    147  CA        27.6400   21.3350   38.4500 C.3   355  ARG355      0.1563
    148  C         26.7780   21.7100   39.6710 C.2   355  ARG355      0.2260
    149  O         26.2830   20.8280   40.3880 O.2   355  ARG355     -0.2867
    150  CB        29.1140   21.1740   38.8420 C.3   355  ARG355      0.0307
    151  CG        29.3650   20.5210   40.1970 C.3   355  ARG355      0.0489
    152  CD        28.9280   19.0500   40.3100 C.3   355  ARG355      0.2205
    153  NE        28.7980   18.6610   41.7210 N.pl3 355  ARG355     -0.0865
    154  CZ        28.5300   17.4320   42.1620 C.cat 355  ARG355      0.5346
    155  NH1       28.3680   16.4420   41.3050 N.pl3 355  ARG355      0.1354
    156  NH2       28.3930   17.1900   43.4630 N.pl3 355  ARG355      0.1354
@<TRIPOS>BOND
     1   138   137    2
     2   137   136    1
     3   139   136    1
     4   139   140    1
     5   136   135    1
     6   140   142   ar
     7   140   141   ar
     8   142   144   ar
     9   135   129   am
    10   141   143   ar
    11   130   129    2
    12   129   128    1
    13   144   145   ar
    14   143   145   ar
    15   124   123    2
    16   128   127    1
    17   128   131    1
    18    74    75    2
    19    74    73    1
    20   123   122    1
    21    98    97    2
    22    41    42    1
    23    73    72    1
    24    73    76    1
    25   131   132    1
    26   133   132    1
    27   133   134    1
    28    97    96    1
    29    97   104   am
    30    96    95    1
    31    96    99    1
    32   100    99    1
    33   100   101    1
    34   122   125    1
    35   122   121    1
    36    42    43    1
    37    42    45    1
    38   125   126    1
    39    43    44    2
    40   107   106    2
    41    76    77    1
    42   106   105    1
    43   120   119    2
    44   101   102    1
    45   104   105    1
    46   116   115    2
    47   105   108    1
    48    70    69    1
    49   121   119   am
    50    45    46    1
    51   119   118    1
    52    77    79   ar
    53    77    78   ar
    54    82    83    1
    55    67    66    1
    56    67    68    2
    57   113   114    1
    58   115   114    1
    59   115   117   am
    60    79    81   ar
    61   102   103    1
    62    83    84    1
    63   146   147    1
    64    85    84    2
    65    66    69    1
    66    66    65    1
    67    69    71    1
    68   108   109    1
    69    78    80   ar
    70    46    47   ar
    71    46    48   ar
    72   118   117    1
    73    49    50    1
    74   109   110    1
    75    81    80   ar
    76   147   150    1
    77   147   148    1
    78    64    63    2
    79    52    51    2
    80    89    88    2
    81   150   151    1
    82    65    63   am
    83    50    51    1
    84    88    87    1
    85    51    53   am
    86    63    62    1
    87    86    87    1
    88    87    90    1
    89   110   111   ar
    90   110   112   ar
    91   148   149    2
    92    56    55    2
    93   151   152    1
    94    53    54    1
    95   152   153    1
    96    55    54    1
    97    55    61   am
    98    54    57    1
    99    62    61    1
   100    90    91    1
   101    91    92    1
   102    59    58   ar
   103   155   154    1
   104   153   154    2
   105    57    58    1
   106   154   156    1
   107    58    60   ar
   108    92    93    1
   109    93    94    1
   110    36    35    1
   111    24    22   ar
   112    24    26   ar
   113    10     9    1
   114    27    26    1
   115    35    34    1
   116    37    38    1
   117    22    21   ar
   118     9    11    1
   119     9     6    1
   120    26    25   ar
   121    38    39    1
   122    34    33    1
   123    33    32    1
   124    21    20    1
   125    21    23   ar
   126     5     6    1
   127     5     3   am
   128    12    13    1
   129    12     7   am
   130    25    23   ar
   131    39    40    2
   132     6     7    1
   133     2     3    1
   134     2     1    1
   135    20    17    1
   136    13    14    1
   137    16    14   am
   138    16    17    1
   139     7     8    2
   140    32    29    1
   141     3     4    2
   142    19    18    2
   143    14    15    2
   144    17    18    1
   145    29    28    1
   146    29    30    1
   147    31    30    2
