@<TRIPOS>MOLECULE
tmp/1tyrB00.pdb
 86 76 0 0 0
SMALL
GASTEIGER

@<TRIPOS>ATOM
      1  N         24.0160   31.9140   65.9410 N.3    13  MET13      -0.1245
      2  CA        22.7910   32.6730   66.1020 C.3    13  MET13       0.1570
      3  C         22.3200   32.9840   64.6660 C.2    13  MET13       0.2261
      4  O         23.1400   33.0310   63.7230 O.2    13  MET13      -0.2867
      5  CB        23.1650   33.9810   66.8740 C.3    13  MET13       0.0387
      6  CG        22.1080   34.6680   67.7420 C.3    13  MET13       0.0595
      7  SD        21.2500   36.0840   66.9980 S.3    13  MET13      -0.1393
      8  CE        22.4150   37.4120   67.3440 C.3    13  MET13       0.0692
      9  N         19.6200   35.6650   62.5120 N.3    15  LYS15      -0.1245
     10  CA        18.7490   36.8430   62.7050 C.3    15  LYS15       0.1561
     11  C         18.1010   36.9970   61.3540 C.2    15  LYS15       0.2260
     12  O         18.8280   36.8310   60.4050 O.2    15  LYS15      -0.2867
     13  CB        19.5970   38.0490   63.0390 C.3    15  LYS15       0.0271
     14  CG        18.6270   39.2260   63.0980 C.3    15  LYS15       0.0035
     15  CD        19.1000   40.3910   63.9620 C.3    15  LYS15       0.0206
     16  CE        17.9100   41.2830   64.3640 C.3    15  LYS15       0.1093
     17  NZ        18.2020   42.4150   65.2620 N.3    15  LYS15      -0.1314
     18  N         15.5100   39.4470   58.8660 N.3    17  LEU17      -0.1245
     19  CA        14.8120   40.7190   58.7480 C.3    17  LEU17       0.1561
     20  C         13.9330   40.6900   57.5170 C.2    17  LEU17       0.2260
     21  O         14.2160   39.9830   56.5820 O.2    17  LEU17      -0.2867
     22  CB        15.9110   41.8250   58.5900 C.3    17  LEU17       0.0270
     23  CG        16.8260   41.8880   59.8230 C.3    17  LEU17       0.0019
     24  CD1       17.8970   42.9440   59.7450 C.3    17  LEU17       0.0001
     25  CD2       15.9830   42.2780   61.0260 C.3    17  LEU17       0.0001
     26  N         27.2390   34.6270   63.4440 N.3   106  THR106     -0.1218
     27  CA        25.9120   35.2140   63.3520 C.3   106  THR106      0.1862
     28  C         25.5310   35.1200   61.8810 C.2   106  THR106      0.2287
     29  O         26.2360   35.6370   61.0330 O.2   106  THR106     -0.2866
     30  CB        25.9240   36.6450   63.8620 C.3   106  THR106      0.1770
     31  OG1       26.2760   36.5840   65.2120 O.3   106  THR106     -0.2211
     32  CG2       24.5940   37.3900   63.6540 C.3   106  THR106      0.0375
     33  N         23.0260   36.2720   59.2180 N.3   108  ALA108     -0.1231
     34  CA        21.8340   37.1190   59.1110 C.3   108  ALA108      0.1694
     35  C         21.1700   37.0500   57.7240 C.2   108  ALA108      0.2592
     36  O         21.7830   36.8580   56.6890 O.2   108  ALA108     -0.2718
     37  CB        22.2330   38.5650   59.3300 C.3   108  ALA108      0.0304
     38  N         19.8810   37.2110   57.6490 N.am  109  ALA109     -0.1966
     39  CA        19.2420   37.1370   56.3650 C.3   109  ALA109      0.1728
     40  C         18.2320   38.2920   56.2350 C.2   109  ALA109      0.2616
     41  O         17.5090   38.6080   57.1570 O.2   109  ALA109     -0.2715
     42  CB        18.6190   35.7210   56.2730 C.3   109  ALA109      0.0334
     43  N         18.1540   38.9540   55.0810 N.am  110  LEU110     -0.1977
     44  CA        17.2560   40.0620   54.8260 C.3   110  LEU110      0.1596
     45  C         16.3950   39.5870   53.7010 C.2   110  LEU110      0.2287
     46  O         16.9130   39.3500   52.6300 O.2   110  LEU110     -0.2864
     47  CB        18.1270   41.1890   54.2770 C.3   110  LEU110      0.0297
     48  CG        17.3030   42.4050   53.8680 C.3   110  LEU110      0.0022
     49  CD1       16.5380   42.9040   55.0800 C.3   110  LEU110      0.0001
     50  CD2       18.2030   43.4990   53.3120 C.3   110  LEU110      0.0001
     51  N         19.1530   38.2780   50.8530 N.3   117  SER117     -0.1217
     52  CA        20.5660   38.5050   50.9910 C.3   117  SER117      0.1889
     53  C         21.0280   37.8460   52.3210 C.2   117  SER117      0.2288
     54  O         20.2710   37.8240   53.2940 O.2   117  SER117     -0.2866
     55  CB        20.6100   40.0100   51.0790 C.3   117  SER117      0.2089
     56  OG        21.9000   40.3200   51.3980 O.3   117  SER117     -0.2183
     57  N         24.4530   37.3320   55.1190 N.3   119  THR119     -0.1218
     58  CA        25.7880   37.7240   55.5270 C.3   119  THR119      0.1862
     59  C         26.1770   36.9630   56.7860 C.2   119  THR119      0.2287
     60  O         25.3640   36.5400   57.5950 O.2   119  THR119     -0.2866
     61  CB        25.9050   39.1940   55.9750 C.3   119  THR119      0.1770
     62  OG1       25.2500   39.7100   54.8730 O.3   119  THR119     -0.2211
     63  CG2       27.3770   39.6150   55.7760 C.3   119  THR119      0.0375
     64  N         28.6490   37.1820   60.2200 N.3   121  VAL121     -0.1245
     65  CA        29.5720   37.9890   61.0020 C.3   121  VAL121      0.1561
     66  C         30.2570   36.9830   61.8720 C.2   121  VAL121      0.2260
     67  O         29.5480   36.3180   62.6250 O.2   121  VAL121     -0.2867
     68  CB        28.7750   38.9040   61.8910 C.3   121  VAL121      0.0252
     69  CG1       29.8050   39.7010   62.7220 C.3   121  VAL121      0.0019
     70  CG2       27.8760   39.8220   61.0550 C.3   121  VAL121      0.0019
     71  N         32.8950   36.4340   64.8910 N.3   123  THR123     -0.1218
     72  CA        33.7600   37.1360   65.8330 C.3   123  THR123      0.1862
     73  C         34.3460   36.2550   66.8960 C.2   123  THR123      0.2287
     74  O         34.1330   35.0640   66.8680 O.2   123  THR123     -0.2866
     75  CB        32.9750   38.2030   66.5930 C.3   123  THR123      0.1770
     76  OG1       31.9270   37.5290   67.2800 O.3   123  THR123     -0.2211
     77  CG2       32.5070   39.1870   65.5250 C.3   123  THR123      0.0375
     78  N         27.7990   37.9930   70.0850 N.3   127  GLU127     -0.1245
     79  CA        26.7850   38.3940   69.0980 C.3   127  GLU127      0.1567
     80  C         27.2690   38.8330   67.7090 C.2   127  GLU127      0.2260
     81  O         28.3120   39.5340   67.5550 O.2   127  GLU127     -0.2867
     82  CB        25.5170   39.1890   69.5550 C.3   127  GLU127      0.0388
     83  CG        25.2910   39.4980   71.0610 C.3   127  GLU127      0.1160
     84  CD        24.2650   38.5900   71.7230 C.2   127  GLU127      0.3649
     85  OE1       22.9940   38.8740   71.4410 O.co2 127  GLU127     -0.2457
     86  OE2       24.5830   37.5880   72.3730 O.co2 127  GLU127     -0.2457
@<TRIPOS>BOND
     1    51    52    1
     2    52    55    1
     3    52    53    1
     4    55    56    1
     5    53    54    2
     6    46    45    2
     7    50    48    1
     8    45    44    1
     9    48    47    1
    10    48    49    1
    11    47    44    1
    12    44    43    1
    13    62    61    1
    14    43    40   am
    15    57    58    1
    16    58    61    1
    17    58    59    1
    18    63    61    1
    19    40    39    1
    20    40    41    2
    21    42    39    1
    22    39    38    1
    23    21    20    2
    24    36    35    2
    25    59    60    2
    26    20    19    1
    27    38    35   am
    28    35    34    1
    29    22    19    1
    30    22    23    1
    31    19    18    1
    32    34    33    1
    33    34    37    1
    34    24    23    1
    35    23    25    1
    36    64    65    1
    37    12    11    2
    38    65    66    1
    39    65    68    1
    40    29    28    2
    41    70    68    1
    42    11    10    1
    43    66    67    2
    44    28    27    1
    45    68    69    1
    46     9    10    1
    47    10    13    1
    48    13    14    1
    49    14    15    1
    50    27    26    1
    51    27    30    1
    52    32    30    1
    53     4     3    2
    54    30    31    1
    55    15    16    1
    56    16    17    1
    57     3     2    1
    58    71    72    1
    59    77    75    1
    60    72    75    1
    61    72    73    1
    62     1     2    1
    63     2     5    1
    64    75    76    1
    65    74    73    2
    66     5     6    1
    67     7     8    1
    68     7     6    1
    69    81    80    2
    70    80    79    1
    71    79    82    1
    72    79    78    1
    73    82    83    1
    74    83    84    1
    75    85    84   ar
    76    84    86   ar
