@<TRIPOS>MOLECULE
tmp/1tyuA00.pdb
 217 202 0 0 0
SMALL
GASTEIGER

@<TRIPOS>ATOM
      1  N         66.5400   53.1350  100.9920 N.3   124  VAL124     -0.1231
      2  CA        67.4270   53.0320  102.1430 C.3   124  VAL124      0.1692
      3  C         68.2440   54.3100  102.3300 C.2   124  VAL124      0.2592
      4  O         68.6050   54.6450  103.4540 O.2   124  VAL124     -0.2718
      5  CB        68.3850   51.8320  102.0060 C.3   124  VAL124      0.0266
      6  CG1       67.5690   50.5640  101.8670 C.3   124  VAL124      0.0020
      7  CG2       69.3280   52.0250  100.8040 C.3   124  VAL124      0.0020
      8  N         68.5110   55.0370  101.2400 N.am  125  SER125     -0.1952
      9  CA        69.2750   56.2840  101.3230 C.3   125  SER125      0.1924
     10  C         68.4900   57.3460  102.0880 C.2   125  SER125      0.2314
     11  O         69.0650   58.1830  102.7630 O.2   125  SER125     -0.2863
     12  CB        69.6640   56.7840   99.9220 C.3   125  SER125      0.2116
     13  OG        70.6210   55.9180   99.3210 O.3   125  SER125     -0.2180
     14  N         69.1150   57.6700  105.7820 N.3   128  VAL128     -0.1245
     15  CA        70.2990   58.4580  106.1040 C.3   128  VAL128      0.1561
     16  C         69.9990   59.9580  105.9390 C.2   128  VAL128      0.2260
     17  O         70.3550   60.7860  106.7900 O.2   128  VAL128     -0.2867
     18  CB        71.4720   58.0650  105.1620 C.3   128  VAL128      0.0252
     19  CG1       72.6810   58.9630  105.3930 C.3   128  VAL128      0.0019
     20  CG2       71.8510   56.6080  105.3860 C.3   128  VAL128      0.0019
     21  N         59.1960   48.6850   95.1000 N.3   145  ASN145     -0.1240
     22  CA        60.0970   48.5670   93.9560 C.3   145  ASN145      0.1653
     23  C         59.3500   48.6980   92.6410 C.2   145  ASN145      0.2266
     24  O         59.4330   47.8400   91.7710 O.2   145  ASN145     -0.2867
     25  CB        60.8320   47.2170   94.0230 C.3   145  ASN145      0.1155
     26  CG        61.9910   47.1160   93.0360 C.2   145  ASN145      0.2627
     27  OD1       62.2770   46.0350   92.5180 O.2   145  ASN145     -0.2716
     28  ND2       62.6740   48.2300   92.7870 N.am  145  ASN145     -0.0877
     29  N         66.7350   51.3700   80.5940 N.3   171  LEU171     -0.1245
     30  CA        67.9720   50.6660   80.8610 C.3   171  LEU171      0.1561
     31  C         68.6390   50.0920   79.6250 C.2   171  LEU171      0.2260
     32  O         68.0420   49.2950   78.9010 O.2   171  LEU171     -0.2867
     33  CB        67.6900   49.5260   81.8580 C.3   171  LEU171      0.0270
     34  CG        68.7260   48.4140   82.1020 C.3   171  LEU171      0.0019
     35  CD1       69.9620   48.9940   82.8010 C.3   171  LEU171      0.0001
     36  CD2       68.0920   47.2940   82.9440 C.3   171  LEU171      0.0001
     37  N         71.4330   47.7370   78.8080 N.3   173  ARG173     -0.1245
     38  CA        72.2670   46.7340   79.4570 C.3   173  ARG173      0.1563
     39  C         73.2080   46.0920   78.4380 C.2   173  ARG173      0.2260
     40  O         72.7540   45.4800   77.4710 O.2   173  ARG173     -0.2867
     41  CB        71.3690   45.6740   80.1260 C.3   173  ARG173      0.0307
     42  CG        72.1130   44.5430   80.8370 C.3   173  ARG173      0.0489
     43  CD        71.1770   43.7360   81.7450 C.3   173  ARG173      0.2205
     44  NE        71.1620   44.3010   83.0890 N.pl3 173  ARG173     -0.0865
     45  CZ        70.1210   44.3260   83.9160 C.cat 173  ARG173      0.5346
     46  NH1       68.9500   43.8110   83.5700 N.pl3 173  ARG173      0.1354
     47  NH2       70.2600   44.8870   85.1060 N.pl3 173  ARG173      0.1354
     48  N         61.3280   53.6280   90.8160 N.3   190  LYS190     -0.1231
     49  CA        62.2680   53.2650   91.8710 C.3   190  LYS190      0.1693
     50  C         63.7370   53.2340   91.4230 C.2   190  LYS190      0.2592
     51  O         64.6230   53.6580   92.1690 O.2   190  LYS190     -0.2718
     52  CB        61.8560   51.9200   92.4900 C.3   190  LYS190      0.0285
     53  CG        62.3020   51.7310   93.9180 C.3   190  LYS190      0.0035
     54  CD        63.6560   51.1130   93.9570 C.3   190  LYS190      0.0206
     55  CE        63.9150   50.3830   95.2740 C.3   190  LYS190      0.1093
     56  NZ        64.9200   49.2720   95.0800 N.3   190  LYS190     -0.1314
     57  N         63.9890   52.7360   90.2140 N.am  191  ASP191     -0.1960
     58  CA        65.3480   52.6510   89.6650 C.3   191  ASP191      0.1840
     59  C         65.7780   53.9180   88.9210 C.2   191  ASP191      0.2622
     60  O         64.9840   54.8520   88.7610 O.2   191  ASP191     -0.2715
     61  CB        65.4510   51.4430   88.7100 C.3   191  ASP191      0.1450
     62  CG        65.3270   50.1010   89.4390 C.2   191  ASP191      0.3671
     63  OD1       65.8170   49.9590   90.5890 O.co2 191  ASP191     -0.2456
     64  OD2       64.7210   49.1870   88.8530 O.co2 191  ASP191     -0.2456
     65  N         67.0340   53.9360   88.4710 N.am  192  GLY192     -0.1954
     66  CA        67.5550   55.0800   87.7340 C.3   192  GLY192      0.1869
     67  C         66.6850   55.3670   86.5260 C.2   192  GLY192      0.2309
     68  O         66.1720   54.4270   85.9130 O.2   192  GLY192     -0.2863
     69  N         69.8640   54.5840   82.5450 N.3   195  THR195     -0.1218
     70  CA        71.0270   53.8130   82.9870 C.3   195  THR195      0.1862
     71  C         71.7720   53.1320   81.8560 C.2   195  THR195      0.2287
     72  O         71.1480   52.4840   80.9970 O.2   195  THR195     -0.2866
     73  CB        70.6030   52.6630   83.9690 C.3   195  THR195      0.1770
     74  OG1       69.9040   53.2120   85.0880 O.3   195  THR195     -0.2211
     75  CG2       71.8170   51.8760   84.4740 C.3   195  THR195      0.0375
     76  N         74.4060   50.3890   81.7970 N.3   197  GLU197     -0.1245
     77  CA        75.0930   49.4050   82.6260 C.3   197  GLU197      0.1567
     78  C         75.8820   48.4330   81.7350 C.2   197  GLU197      0.2260
     79  O         75.3040   47.7640   80.8670 O.2   197  GLU197     -0.2867
     80  CB        74.0690   48.6360   83.4710 C.3   197  GLU197      0.0388
     81  CG        74.6890   47.6490   84.4500 C.3   197  GLU197      0.1160
     82  CD        73.7100   46.5960   84.9140 C.2   197  GLU197      0.3649
     83  OE1       73.6280   45.5680   84.2320 O.co2 197  GLU197     -0.2457
     84  OE2       73.0250   46.7810   85.9440 O.co2 197  GLU197     -0.2457
     85  N         78.3940   46.0090   83.0200 N.3   199  LEU199     -0.1245
     86  CA        79.1250   45.1810   83.9610 C.3   199  LEU199      0.1561
     87  C         79.6930   43.9080   83.3170 C.2   199  LEU199      0.2260
     88  O         80.6910   43.3710   83.7880 O.2   199  LEU199     -0.2867
     89  CB        78.2200   44.8470   85.1520 C.3   199  LEU199      0.0270
     90  CG        77.8370   46.0600   86.0180 C.3   199  LEU199      0.0019
     91  CD1       76.7830   45.6660   87.0620 C.3   199  LEU199      0.0001
     92  CD2       79.0880   46.6170   86.7000 C.3   199  LEU199      0.0001
     93  N         66.1210   57.3300   92.7190 N.3   219  VAL219     -0.1231
     94  CA        67.5720   57.3920   92.7310 C.3   219  VAL219      0.1692
     95  C         68.0760   58.3830   91.6800 C.2   219  VAL219      0.2592
     96  O         67.4310   59.4110   91.4620 O.2   219  VAL219     -0.2718
     97  CB        68.2050   55.9690   92.5930 C.3   219  VAL219      0.0266
     98  CG1       67.7540   55.1070   93.7830 C.3   219  VAL219      0.0020
     99  CG2       67.8120   55.2990   91.2960 C.3   219  VAL219      0.0020
    100  N         69.1980   58.1130   91.0250 N.am  220  SER220     -0.1952
    101  CA        69.7440   59.0580   90.0370 C.3   220  SER220      0.1924
    102  C         69.0410   59.1330   88.6700 C.2   220  SER220      0.2314
    103  O         68.4970   58.1440   88.1740 O.2   220  SER220     -0.2863
    104  CB        71.2480   58.8140   89.8550 C.3   220  SER220      0.2116
    105  OG        71.9150   58.9770   91.1020 O.3   220  SER220     -0.2180
    106  N         72.7350   57.6570   84.9020 N.3   223  GLN223     -0.1245
    107  CA        73.8440   56.9910   85.5710 C.3   223  GLN223      0.1566
    108  C         74.5770   56.0120   84.6750 C.2   223  GLN223      0.2260
    109  O         73.9770   55.3800   83.7910 O.2   223  GLN223     -0.2867
    110  CB        73.3450   56.2840   86.8420 C.3   223  GLN223      0.0367
    111  CG        72.2370   55.2540   86.6260 C.3   223  GLN223      0.0905
    112  CD        71.7070   54.6430   87.9330 C.2   223  GLN223      0.2608
    113  OE1       72.0980   55.0450   89.0300 O.2   223  GLN223     -0.2717
    114  NE2       70.8180   53.6640   87.8110 N.am  223  GLN223     -0.0878
    115  N         77.6400   52.7760   84.5130 N.3   225  LEU225     -0.1245
    116  CA        78.3880   51.7330   85.1970 C.3   225  LEU225      0.1561
    117  C         79.3440   51.0970   84.1950 C.2   225  LEU225      0.2260
    118  O         78.9190   50.6110   83.1480 O.2   225  LEU225     -0.2867
    119  CB        77.4540   50.6500   85.7750 C.3   225  LEU225      0.0270
    120  CG        76.5340   51.0480   86.9300 C.3   225  LEU225      0.0019
    121  CD1       75.2220   51.5780   86.3630 C.3   225  LEU225      0.0001
    122  CD2       76.2810   49.8380   87.8380 C.3   225  LEU225      0.0001
    123  N         68.0680   60.7900   94.2310 N.3   247  GLU247     -0.1231
    124  CA        69.4500   60.7370   94.6600 C.3   247  GLU247      0.1699
    125  C         70.1680   61.8790   93.9370 C.2   247  GLU247      0.2592
    126  O         70.0200   63.0260   94.3380 O.2   247  GLU247     -0.2718
    127  CB        70.1230   59.3800   94.3810 C.3   247  GLU247      0.0402
    128  CG        71.5230   59.2400   95.0370 C.3   247  GLU247      0.1161
    129  CD        72.1780   57.9030   94.7450 C.2   247  GLU247      0.3649
    130  OE1       71.5760   56.8580   95.0450 O.co2 247  GLU247     -0.2457
    131  OE2       73.2920   57.8850   94.2040 O.co2 247  GLU247     -0.2457
    132  N         70.8880   61.5880   92.8560 N.am  248  SER248     -0.1952
    133  CA        71.6390   62.6190   92.1410 C.3   248  SER248      0.1924
    134  C         71.2150   62.8430   90.6870 C.2   248  SER248      0.2314
    135  O         70.6240   61.9640   90.0410 O.2   248  SER248     -0.2863
    136  CB        73.1450   62.3010   92.2160 C.3   248  SER248      0.2116
    137  OG        73.5820   62.2000   93.5700 O.3   248  SER248     -0.2180
    138  N         75.1990   60.6780   87.7030 N.3   251  LYS251     -0.1245
    139  CA        76.0820   59.8540   88.5170 C.3   251  LYS251      0.1561
    140  C         76.9350   58.8250   87.7860 C.2   251  LYS251      0.2260
    141  O         76.4410   58.0750   86.9340 O.2   251  LYS251     -0.2867
    142  CB        75.2510   59.1220   89.5850 C.3   251  LYS251      0.0271
    143  CG        76.0020   58.0920   90.4320 C.3   251  LYS251      0.0035
    144  CD        75.0630   57.3580   91.3890 C.3   251  LYS251      0.0206
    145  CE        75.8480   56.3890   92.2670 C.3   251  LYS251      0.1093
    146  NZ        75.0100   55.7150   93.2960 N.3   251  LYS251     -0.1314
    147  N         78.9940   55.6720   88.7720 N.3   253  TRP253     -0.1227
    148  CA        79.0560   54.7980   89.9370 C.3   253  TRP253      0.1737
    149  C         80.4280   54.6150   90.5470 C.2   253  TRP253      0.2595
    150  O         81.4480   54.8000   89.8850 O.2   253  TRP253     -0.2718
    151  CB        78.4600   53.4310   89.5990 C.3   253  TRP253      0.0564
    152  CG        76.9980   53.4090   89.7790 C.ar  253  TRP253      0.0003
    153  CD1       76.0760   54.1180   89.0730 C.ar  253  TRP253      0.0946
    154  CD2       76.2750   52.6630   90.7630 C.ar  253  TRP253      0.0152
    155  NE1       74.8170   53.8640   89.5620 N.ar  253  TRP253     -0.2442
    156  CE2       74.9060   52.9760   90.5990 C.ar  253  TRP253      0.0810
    157  CE3       76.6470   51.7630   91.7730 C.ar  253  TRP253      0.0012
    158  CZ2       73.9070   52.4210   91.4070 C.ar  253  TRP253      0.0191
    159  CZ3       75.6560   51.2120   92.5780 C.ar  253  TRP253      0.0001
    160  CH2       74.2970   51.5460   92.3860 C.ar  253  TRP253      0.0015
    161  N         80.4370   54.2720   91.8300 N.am  254  GLN254     -0.1979
    162  CA        81.6770   54.0350   92.5640 C.3   254  GLN254      0.1601
    163  C         81.7310   52.6140   93.1240 C.2   254  GLN254      0.2287
    164  O         80.6940   52.0030   93.4200 O.2   254  GLN254     -0.2864
    165  CB        81.8200   55.0080   93.7540 C.3   254  GLN254      0.0394
    166  CG        81.7450   56.5040   93.4350 C.3   254  GLN254      0.0908
    167  CD        80.3560   57.0910   93.6290 C.2   254  GLN254      0.2608
    168  OE1       79.7150   56.8890   94.6630 O.2   254  GLN254     -0.2717
    169  NE2       79.8880   57.8290   92.6340 N.am  254  GLN254     -0.0878
    170  N         80.3920   46.4770   91.9010 N.3   257  VAL257     -0.1231
    171  CA        78.9860   46.1090   91.7860 C.3   257  VAL257      0.1692
    172  C         79.0470   44.7190   91.1750 C.2   257  VAL257      0.2592
    173  O         79.5920   44.5160   90.0870 O.2   257  VAL257     -0.2718
    174  CB        78.1760   47.0720   90.8970 C.3   257  VAL257      0.0266
    175  CG1       76.7750   46.5170   90.6690 C.3   257  VAL257      0.0020
    176  CG2       78.0690   48.4310   91.5800 C.3   257  VAL257      0.0020
    177  N         78.5120   43.7540   91.9080 N.am  258  GLY258     -0.1957
    178  CA        78.5640   42.3830   91.4540 C.3   258  GLY258      0.1869
    179  C         79.9620   41.9370   91.8200 C.2   258  GLY258      0.2309
    180  O         80.3700   42.0580   92.9750 O.2   258  GLY258     -0.2863
    181  N         69.9890   64.4540   96.8190 N.3   279  TRP279     -0.1227
    182  CA        71.3820   64.2880   97.1760 C.3   279  TRP279      0.1737
    183  C         72.2330   65.2400   96.3240 C.2   279  TRP279      0.2595
    184  O         72.1480   66.4590   96.4990 O.2   279  TRP279     -0.2718
    185  CB        71.8590   62.8290   97.0640 C.3   279  TRP279      0.0564
    186  CG        71.3210   61.9380   98.1640 C.ar  279  TRP279      0.0003
    187  CD1       70.0600   61.4210   98.2530 C.ar  279  TRP279      0.0946
    188  CD2       72.0300   61.4520   99.3130 C.ar  279  TRP279      0.0152
    189  NE1       69.9400   60.6460   99.3770 N.ar  279  TRP279     -0.2442
    190  CE2       71.1320   60.6420  100.0490 C.ar  279  TRP279      0.0810
    191  CE3       73.3340   61.6190   99.7960 C.ar  279  TRP279      0.0012
    192  CZ2       71.4980   59.9980  101.2510 C.ar  279  TRP279      0.0191
    193  CZ3       73.7020   60.9760  100.9940 C.ar  279  TRP279      0.0001
    194  CH2       72.7800   60.1760  101.7020 C.ar  279  TRP279      0.0015
    195  N         73.0050   64.7300   95.3720 N.am  280  ASP280     -0.1974
    196  CA        73.9040   65.6090   94.6350 C.3   280  ASP280      0.1709
    197  C         73.5020   66.0600   93.2330 C.2   280  ASP280      0.2293
    198  O         72.6610   65.4390   92.5790 O.2   280  ASP280     -0.2864
    199  CB        75.2740   64.9390   94.5660 C.3   280  ASP280      0.1436
    200  CG        75.7640   64.4580   95.9250 C.2   280  ASP280      0.3671
    201  OD1       75.2230   64.8700   96.9760 O.co2 280  ASP280     -0.2456
    202  OD2       76.7140   63.6600   95.9410 O.co2 280  ASP280     -0.2456
    203  N         77.5050   63.7270   90.6680 N.3   283  ASP283     -0.1239
    204  CA        78.3190   62.8670   91.4970 C.3   283  ASP283      0.1674
    205  C         79.2360   62.1520   90.5100 C.2   283  ASP283      0.2266
    206  O         78.8790   61.1160   89.9390 O.2   283  ASP283     -0.2867
    207  CB        77.4410   61.8730   92.2610 C.3   283  ASP283      0.1410
    208  CG        78.2610   60.8510   93.0340 C.2   283  ASP283      0.3668
    209  OD1       79.4630   61.0820   93.2650 O.co2 283  ASP283     -0.2456
    210  OD2       77.7110   59.8060   93.3970 O.co2 283  ASP283     -0.2456
    211  N         84.6740   54.9300   96.6520 N.3   288  THR288     -0.1218
    212  CA        83.7940   55.1330   97.7950 C.3   288  THR288      0.1862
    213  C         84.5760   55.2780   99.1010 C.2   288  THR288      0.2287
    214  O         85.7770   54.9980   99.1460 O.2   288  THR288     -0.2866
    215  CB        82.8170   53.9570   97.9250 C.3   288  THR288      0.1770
    216  OG1       83.3750   52.7980   97.2730 O.3   288  THR288     -0.2211
    217  CG2       81.4720   54.3190   97.3070 C.3   288  THR288      0.0375
@<TRIPOS>BOND
     1    40    39    2
     2    39    38    1
     3    37    38    1
     4    32    31    2
     5    38    41    1
     6    31    30    1
     7    41    42    1
     8    29    30    1
     9    42    43    1
    10    30    33    1
    11    79    78    2
    12    72    71    2
    13    78    77    1
    14    43    44    1
    15    76    77    1
    16    71    70    1
    17    33    34    1
    18    34    35    1
    19    34    36    1
    20    69    70    1
    21    77    80    1
    22    70    73    1
    23    85    86    1
    24    44    45    2
    25   118   117    2
    26    87    88    2
    27    87    86    1
    28    80    81    1
    29    46    45    1
    30   109   108    2
    31    45    47    1
    32    86    89    1
    33    73    75    1
    34    73    74    1
    35   117   116    1
    36    83    82   ar
    37    81    82    1
    38   115   116    1
    39   108   107    1
    40   106   107    1
    41    82    84   ar
    42    89    90    1
    43   116   119    1
    44   107   110    1
    45   119   120    1
    46    68    67    2
    47    90    92    1
    48    90    91    1
    49   121   120    1
    50    67    66    1
    51   111   110    1
    52   111   112    1
    53   120   122    1
    54   141   140    2
    55   138   139    1
    56    66    65    1
    57   140   139    1
    58   114   112   am
    59   112   113    2
    60   103   102    2
    61    65    59   am
    62   139   142    1
    63   102   101    1
    64    61    62    1
    65    61    58    1
    66    60    59    2
    67   147   148    1
    68    64    62   ar
    69    59    58    1
    70   153   155   ar
    71   153   152   ar
    72    62    63   ar
    73   155   156   ar
    74   142   143    1
    75   151   152    1
    76   151   148    1
    77    58    57    1
    78   152   154   ar
    79   104   101    1
    80   104   105    1
    81   150   149    2
    82   148   149    1
    83   206   205    2
    84   101   100    1
    85   135   134    2
    86   173   172    2
    87    57    50   am
    88   143   144    1
    89   205   204    1
    90   149   161   am
    91   156   154   ar
    92   156   158   ar
    93   203   204    1
    94   175   174    1
    95   134   133    1
    96   154   157   ar
    97    48    49    1
    98   174   176    1
    99   174   171    1
   100   100    95   am
   101   172   171    1
   102   172   177   am
   103    99    97    1
   104   144   145    1
   105   158   160   ar
   106    50    49    1
   107    50    51    2
   108   178   179    1
   109   178   177    1
   110    96    95    2
   111   204   207    1
   112    95    94    1
   113    24    23    2
   114   157   159   ar
   115   171   170    1
   116   179   180    2
   117   161   162    1
   118    49    52    1
   119   133   136    1
   120   133   132    1
   121   136   137    1
   122   207   208    1
   123   145   146    1
   124   160   159   ar
   125    52    53    1
   126    27    26    2
   127   162   163    1
   128   162   165    1
   129   198   197    2
   130    97    94    1
   131    97    98    1
   132   169   167   am
   133    23    22    1
   134    93    94    1
   135    28    26   am
   136   132   125   am
   137   208   209   ar
   138   208   210   ar
   139    26    25    1
   140   163   164    2
   141   197   196    1
   142   166   167    1
   143   166   165    1
   144   167   168    2
   145    53    54    1
   146   125   126    2
   147   125   124    1
   148    22    25    1
   149    22    21    1
   150    54    55    1
   151   131   129   ar
   152   123   124    1
   153   127   124    1
   154   127   128    1
   155   199   196    1
   156   199   200    1
   157   196   195    1
   158   129   128    1
   159   129   130   ar
   160    56    55    1
   161   195   183   am
   162   200   202   ar
   163   200   201   ar
   164   183   184    2
   165   183   182    1
   166   211   212    1
   167   181   182    1
   168   185   182    1
   169   185   186    1
   170   216   215    1
   171   217   215    1
   172   212   215    1
   173   212   213    1
   174   186   187   ar
   175   186   188   ar
   176   187   189   ar
   177   213   214    2
   178   188   191   ar
   179   188   190   ar
   180    13    12    1
   181   189   190   ar
   182   191   193   ar
   183    12     9    1
   184   190   192   ar
   185     7     5    1
   186     1     2    1
   187   193   194   ar
   188     8     9    1
   189     8     3   am
   190   192   194   ar
   191     9    10    1
   192     6     5    1
   193     5     2    1
   194    10    11    2
   195     2     3    1
   196     3     4    2
   197    18    20    1
   198    18    19    1
   199    18    15    1
   200    14    15    1
   201    16    15    1
   202    16    17    2
