@<TRIPOS>MOLECULE
tmp/1tywA00.pdb
 224 209 0 0 0
SMALL
GASTEIGER

@<TRIPOS>ATOM
      1  N         63.6900   55.0650   99.7700 N.3   123  THR123     -0.1203
      2  CA        64.7270   54.0490   99.6080 C.3   123  THR123      0.1994
      3  C         65.5350   54.0400  100.9100 C.2   123  THR123      0.2618
      4  O         65.3010   54.8670  101.8090 O.2   123  THR123     -0.2717
      5  CB        65.7170   54.3680   98.4470 C.3   123  THR123      0.1784
      6  OG1       66.5440   55.4780   98.8140 O.3   123  THR123     -0.2211
      7  CG2       64.9830   54.6960   97.1630 C.3   123  THR123      0.0376
      8  N         66.5100   53.1360  100.9840 N.am  124  VAL124     -0.1965
      9  CA        67.3810   53.0400  102.1560 C.3   124  VAL124      0.1727
     10  C         68.2200   54.3190  102.3420 C.2   124  VAL124      0.2616
     11  O         68.5740   54.6720  103.4660 O.2   124  VAL124     -0.2715
     12  CB        68.3180   51.8170  102.0580 C.3   124  VAL124      0.0290
     13  CG1       67.4890   50.5410  101.9560 C.3   124  VAL124      0.0023
     14  CG2       69.2620   51.9630  100.8610 C.3   124  VAL124      0.0023
     15  N         68.5060   55.0290  101.2490 N.am  125  SER125     -0.1950
     16  CA        69.2760   56.2720  101.3320 C.3   125  SER125      0.1924
     17  C         68.4920   57.3370  102.0900 C.2   125  SER125      0.2314
     18  O         69.0700   58.1790  102.7570 O.2   125  SER125     -0.2863
     19  CB        69.6650   56.7710   99.9300 C.3   125  SER125      0.2116
     20  OG        70.5700   55.8640   99.3060 O.3   125  SER125     -0.2180
     21  N         69.0870   57.6990  105.7970 N.3   128  VAL128     -0.1245
     22  CA        70.2640   58.4850  106.1420 C.3   128  VAL128      0.1561
     23  C         69.9790   59.9840  105.9630 C.2   128  VAL128      0.2260
     24  O         70.3020   60.8060  106.8280 O.2   128  VAL128     -0.2867
     25  CB        71.4490   58.0680  105.2440 C.3   128  VAL128      0.0252
     26  CG1       72.6480   58.9700  105.4800 C.3   128  VAL128      0.0019
     27  CG2       71.8010   56.6020  105.5000 C.3   128  VAL128      0.0019
     28  N         59.1080   48.6670   95.0980 N.3   145  ASN145     -0.1240
     29  CA        60.0190   48.5380   93.9670 C.3   145  ASN145      0.1653
     30  C         59.3090   48.6970   92.6270 C.2   145  ASN145      0.2266
     31  O         59.4660   47.8810   91.7200 O.2   145  ASN145     -0.2867
     32  CB        60.7480   47.1810   94.0350 C.3   145  ASN145      0.1155
     33  CG        61.8740   47.0550   92.9980 C.2   145  ASN145      0.2627
     34  OD1       62.1050   45.9740   92.4480 O.2   145  ASN145     -0.2716
     35  ND2       62.5710   48.1570   92.7270 N.am  145  ASN145     -0.0877
     36  N         66.7230   51.3480   80.6550 N.3   171  LEU171     -0.1245
     37  CA        67.9640   50.6470   80.9190 C.3   171  LEU171      0.1561
     38  C         68.6330   50.0600   79.6820 C.2   171  LEU171      0.2260
     39  O         68.0480   49.2270   78.9820 O.2   171  LEU171     -0.2867
     40  CB        67.6970   49.5110   81.9280 C.3   171  LEU171      0.0270
     41  CG        68.7660   48.4400   82.1890 C.3   171  LEU171      0.0019
     42  CD1       70.0100   49.0620   82.8430 C.3   171  LEU171      0.0001
     43  CD2       68.1670   47.3350   83.0700 C.3   171  LEU171      0.0001
     44  N         71.4280   47.7410   78.8020 N.3   173  ARG173     -0.1245
     45  CA        72.2590   46.7240   79.4400 C.3   173  ARG173      0.1563
     46  C         73.2130   46.0900   78.4370 C.2   173  ARG173      0.2260
     47  O         72.7690   45.4510   77.4780 O.2   173  ARG173     -0.2867
     48  CB        71.3600   45.6560   80.0920 C.3   173  ARG173      0.0307
     49  CG        72.0960   44.5620   80.8600 C.3   173  ARG173      0.0489
     50  CD        71.1300   43.7680   81.7360 C.3   173  ARG173      0.2205
     51  NE        71.0860   44.3130   83.0910 N.pl3 173  ARG173     -0.0865
     52  CZ        70.0390   44.2880   83.9200 C.cat 173  ARG173      0.5346
     53  NH1       68.8780   43.7360   83.5760 N.pl3 173  ARG173      0.1354
     54  NH2       70.1500   44.8680   85.1050 N.pl3 173  ARG173      0.1354
     55  N         61.3370   53.6300   90.8500 N.3   190  LYS190     -0.1231
     56  CA        62.2670   53.2460   91.9150 C.3   190  LYS190      0.1693
     57  C         63.7380   53.2220   91.4630 C.2   190  LYS190      0.2592
     58  O         64.6380   53.6150   92.2250 O.2   190  LYS190     -0.2718
     59  CB        61.8670   51.8740   92.5000 C.3   190  LYS190      0.0285
     60  CG        62.6950   51.4120   93.6820 C.3   190  LYS190      0.0035
     61  CD        62.3900   52.2570   94.9030 C.3   190  LYS190      0.0206
     62  CE        63.2740   51.8950   96.1020 C.3   190  LYS190      0.1093
     63  NZ        62.8740   50.6650   96.8650 N.3   190  LYS190     -0.1314
     64  N         63.9800   52.7530   90.2390 N.am  191  ASP191     -0.1960
     65  CA        65.3460   52.6700   89.7080 C.3   191  ASP191      0.1840
     66  C         65.7680   53.9310   88.9510 C.2   191  ASP191      0.2622
     67  O         64.9700   54.8430   88.7690 O.2   191  ASP191     -0.2715
     68  CB        65.4850   51.4410   88.7960 C.3   191  ASP191      0.1450
     69  CG        65.3670   50.1110   89.5640 C.2   191  ASP191      0.3671
     70  OD1       65.8080   50.0080   90.7320 O.co2 191  ASP191     -0.2456
     71  OD2       64.8200   49.1600   88.9780 O.co2 191  ASP191     -0.2456
     72  N         67.0250   53.9750   88.5160 N.am  192  GLY192     -0.1954
     73  CA        67.5340   55.1200   87.7720 C.3   192  GLY192      0.1869
     74  C         66.6780   55.3790   86.5400 C.2   192  GLY192      0.2309
     75  O         66.1730   54.4310   85.9230 O.2   192  GLY192     -0.2863
     76  N         69.8710   54.5810   82.5500 N.3   195  THR195     -0.1218
     77  CA        71.0290   53.8190   83.0010 C.3   195  THR195      0.1862
     78  C         71.7870   53.1150   81.8750 C.2   195  THR195      0.2287
     79  O         71.1830   52.4410   81.0240 O.2   195  THR195     -0.2866
     80  CB        70.5940   52.7040   84.0120 C.3   195  THR195      0.1770
     81  OG1       69.8970   53.2920   85.1100 O.3   195  THR195     -0.2211
     82  CG2       71.8110   51.9280   84.5490 C.3   195  THR195      0.0375
     83  N         74.3990   50.3950   81.7930 N.3   197  GLU197     -0.1245
     84  CA        75.0840   49.4080   82.6190 C.3   197  GLU197      0.1567
     85  C         75.8790   48.4550   81.7340 C.2   197  GLU197      0.2260
     86  O         75.3110   47.8010   80.8550 O.2   197  GLU197     -0.2867
     87  CB        74.0560   48.6300   83.4480 C.3   197  GLU197      0.0388
     88  CG        74.6650   47.6350   84.4210 C.3   197  GLU197      0.1160
     89  CD        73.6830   46.5440   84.8160 C.2   197  GLU197      0.3649
     90  OE1       72.8860   46.7510   85.7600 O.co2 197  GLU197     -0.2457
     91  OE2       73.7020   45.4760   84.1780 O.co2 197  GLU197     -0.2457
     92  N         78.3850   46.0270   83.0130 N.3   199  LEU199     -0.1245
     93  CA        79.1200   45.2020   83.9640 C.3   199  LEU199      0.1561
     94  C         79.7050   43.9360   83.3280 C.2   199  LEU199      0.2260
     95  O         80.7390   43.4400   83.7700 O.2   199  LEU199     -0.2867
     96  CB        78.2270   44.8620   85.1640 C.3   199  LEU199      0.0270
     97  CG        77.8050   46.0680   86.0250 C.3   199  LEU199      0.0019
     98  CD1       76.7520   45.6450   87.0610 C.3   199  LEU199      0.0001
     99  CD2       79.0440   46.6910   86.6980 C.3   199  LEU199      0.0001
    100  N         66.0990   57.3370   92.7200 N.3   219  VAL219     -0.1231
    101  CA        67.5490   57.4180   92.7030 C.3   219  VAL219      0.1692
    102  C         68.0510   58.4050   91.6340 C.2   219  VAL219      0.2592
    103  O         67.4110   59.4450   91.4220 O.2   219  VAL219     -0.2718
    104  CB        68.2140   56.0080   92.6680 C.3   219  VAL219      0.0266
    105  CG1       67.8020   55.2390   93.9200 C.3   219  VAL219      0.0020
    106  CG2       67.8250   55.2280   91.4320 C.3   219  VAL219      0.0020
    107  N         69.1870   58.1310   90.9960 N.am  220  SER220     -0.1952
    108  CA        69.7410   59.0670   90.0010 C.3   220  SER220      0.1924
    109  C         69.0410   59.1440   88.6360 C.2   220  SER220      0.2314
    110  O         68.5260   58.1420   88.1200 O.2   220  SER220     -0.2863
    111  CB        71.2410   58.8300   89.8340 C.3   220  SER220      0.2116
    112  OG        71.9060   59.0240   91.0790 O.3   220  SER220     -0.2180
    113  N         72.7260   57.6530   84.9250 N.3   223  GLN223     -0.1245
    114  CA        73.8520   57.0170   85.5940 C.3   223  GLN223      0.1566
    115  C         74.5840   56.0410   84.6860 C.2   223  GLN223      0.2260
    116  O         73.9820   55.4240   83.7970 O.2   223  GLN223     -0.2867
    117  CB        73.3760   56.3190   86.8730 C.3   223  GLN223      0.0367
    118  CG        72.3270   55.2260   86.6460 C.3   223  GLN223      0.0905
    119  CD        71.7790   54.6440   87.9480 C.2   223  GLN223      0.2608
    120  OE1       72.1770   55.0550   89.0410 O.2   223  GLN223     -0.2717
    121  NE2       70.8740   53.6770   87.8350 N.am  223  GLN223     -0.0878
    122  N         77.6660   52.8060   84.5220 N.3   225  LEU225     -0.1245
    123  CA        78.4120   51.7550   85.2070 C.3   225  LEU225      0.1561
    124  C         79.3620   51.1050   84.1990 C.2   225  LEU225      0.2260
    125  O         78.9250   50.6290   83.1500 O.2   225  LEU225     -0.2867
    126  CB        77.4790   50.6750   85.7860 C.3   225  LEU225      0.0270
    127  CG        76.5190   51.0290   86.9280 C.3   225  LEU225      0.0019
    128  CD1       75.2080   51.5480   86.3410 C.3   225  LEU225      0.0001
    129  CD2       76.2770   49.7910   87.7980 C.3   225  LEU225      0.0001
    130  N         68.1050   60.8370   94.2460 N.3   247  GLU247     -0.1231
    131  CA        69.4950   60.7740   94.6580 C.3   247  GLU247      0.1699
    132  C         70.2220   61.9150   93.9360 C.2   247  GLU247      0.2592
    133  O         70.0330   63.0670   94.3020 O.2   247  GLU247     -0.2718
    134  CB        70.1460   59.4140   94.3640 C.3   247  GLU247      0.0402
    135  CG        71.5400   59.2550   94.9970 C.3   247  GLU247      0.1161
    136  CD        72.1560   57.8970   94.7060 C.2   247  GLU247      0.3649
    137  OE1       71.5230   56.8690   95.0300 O.co2 247  GLU247     -0.2457
    138  OE2       73.2600   57.8560   94.1340 O.co2 247  GLU247     -0.2457
    139  N         70.9350   61.6180   92.8520 N.am  248  SER248     -0.1952
    140  CA        71.6920   62.6360   92.1280 C.3   248  SER248      0.1924
    141  C         71.2530   62.8510   90.6780 C.2   248  SER248      0.2314
    142  O         70.6660   61.9640   90.0420 O.2   248  SER248     -0.2863
    143  CB        73.2010   62.3210   92.1930 C.3   248  SER248      0.2116
    144  OG        73.6440   62.2320   93.5440 O.3   248  SER248     -0.2180
    145  N         75.2250   60.6850   87.7100 N.3   251  LYS251     -0.1245
    146  CA        76.1080   59.8660   88.5260 C.3   251  LYS251      0.1561
    147  C         76.9750   58.8400   87.7860 C.2   251  LYS251      0.2260
    148  O         76.4950   58.1210   86.9040 O.2   251  LYS251     -0.2867
    149  CB        75.2610   59.1190   89.5720 C.3   251  LYS251      0.0271
    150  CG        75.9940   58.0620   90.3890 C.3   251  LYS251      0.0035
    151  CD        75.0510   57.3460   91.3530 C.3   251  LYS251      0.0206
    152  CE        75.8380   56.4490   92.3140 C.3   251  LYS251      0.1093
    153  NZ        75.0020   55.6960   93.2960 N.3   251  LYS251     -0.1314
    154  N         79.0110   55.6590   88.7390 N.3   253  TRP253     -0.1227
    155  CA        79.0740   54.7680   89.8970 C.3   253  TRP253      0.1737
    156  C         80.4420   54.5880   90.5120 C.2   253  TRP253      0.2595
    157  O         81.4610   54.7480   89.8460 O.2   253  TRP253     -0.2718
    158  CB        78.4850   53.4020   89.5600 C.3   253  TRP253      0.0564
    159  CG        77.0260   53.3650   89.7710 C.ar  253  TRP253      0.0003
    160  CD1       76.0780   54.0830   89.0970 C.ar  253  TRP253      0.0946
    161  CD2       76.3310   52.6190   90.7730 C.ar  253  TRP253      0.0152
    162  NE1       74.8360   53.8350   89.6310 N.ar  253  TRP253     -0.2442
    163  CE2       74.9590   52.9370   90.6550 C.ar  253  TRP253      0.0810
    164  CE3       76.7340   51.7120   91.7670 C.ar  253  TRP253      0.0012
    165  CZ2       73.9880   52.3860   91.4900 C.ar  253  TRP253      0.0191
    166  CZ3       75.7690   51.1670   92.6000 C.ar  253  TRP253      0.0001
    167  CH2       74.4070   51.5070   92.4530 C.ar  253  TRP253      0.0015
    168  N         80.4470   54.2470   91.7950 N.am  254  GLN254     -0.1979
    169  CA        81.6810   54.0240   92.5380 C.3   254  GLN254      0.1601
    170  C         81.7180   52.5970   93.0740 C.2   254  GLN254      0.2287
    171  O         80.6730   51.9910   93.3370 O.2   254  GLN254     -0.2864
    172  CB        81.7940   54.9750   93.7470 C.3   254  GLN254      0.0394
    173  CG        81.7380   56.4740   93.4510 C.3   254  GLN254      0.0908
    174  CD        80.3450   57.0490   93.6330 C.2   254  GLN254      0.2608
    175  OE1       79.6920   56.8310   94.6600 O.2   254  GLN254     -0.2717
    176  NE2       79.8780   57.7760   92.6410 N.am  254  GLN254     -0.0878
    177  N         80.4250   46.4290   91.8610 N.3   257  VAL257     -0.1231
    178  CA        79.0290   46.0290   91.7270 C.3   257  VAL257      0.1692
    179  C         79.1030   44.6250   91.1380 C.2   257  VAL257      0.2592
    180  O         79.6730   44.4120   90.0620 O.2   257  VAL257     -0.2718
    181  CB        78.1920   46.9790   90.8460 C.3   257  VAL257      0.0266
    182  CG1       76.7910   46.4040   90.6650 C.3   257  VAL257      0.0020
    183  CG2       78.0870   48.3490   91.5170 C.3   257  VAL257      0.0020
    184  N         78.5880   43.6620   91.8960 N.am  258  GLY258     -0.1957
    185  CA        78.6440   42.2780   91.4740 C.3   258  GLY258      0.1869
    186  C         80.0510   41.8580   91.8400 C.2   258  GLY258      0.2309
    187  O         80.4640   41.9980   92.9960 O.2   258  GLY258     -0.2863
    188  N         69.9820   64.4370   96.8280 N.3   279  TRP279     -0.1227
    189  CA        71.3770   64.2510   97.1650 C.3   279  TRP279      0.1737
    190  C         72.2550   65.2120   96.3570 C.2   279  TRP279      0.2595
    191  O         72.1650   66.4220   96.5630 O.2   279  TRP279     -0.2718
    192  CB        71.8350   62.7940   97.0570 C.3   279  TRP279      0.0564
    193  CG        71.2790   61.9550   98.1590 C.ar  279  TRP279      0.0003
    194  CD1       69.9910   61.5020   98.2730 C.ar  279  TRP279      0.0946
    195  CD2       71.9870   61.4370   99.2920 C.ar  279  TRP279      0.0152
    196  NE1       69.8590   60.7260   99.4030 N.ar  279  TRP279     -0.2442
    197  CE2       71.0670   60.6670  100.0470 C.ar  279  TRP279      0.0810
    198  CE3       73.3160   61.5410   99.7400 C.ar  279  TRP279      0.0012
    199  CZ2       71.4300   59.9950  101.2370 C.ar  279  TRP279      0.0191
    200  CZ3       73.6840   60.8680  100.9290 C.ar  279  TRP279      0.0001
    201  CH2       72.7350   60.1070  101.6590 C.ar  279  TRP279      0.0015
    202  N         72.9980   64.7230   95.3690 N.am  280  ASP280     -0.1974
    203  CA        73.9210   65.5940   94.6600 C.3   280  ASP280      0.1709
    204  C         73.5280   66.0370   93.2550 C.2   280  ASP280      0.2293
    205  O         72.7010   65.4060   92.6000 O.2   280  ASP280     -0.2864
    206  CB        75.2930   64.9220   94.6080 C.3   280  ASP280      0.1436
    207  CG        75.7880   64.4840   95.9750 C.2   280  ASP280      0.3671
    208  OD1       75.2430   64.9120   97.0210 O.co2 280  ASP280     -0.2456
    209  OD2       76.7410   63.6920   95.9970 O.co2 280  ASP280     -0.2456
    210  N         77.5000   63.7230   90.6490 N.3   283  ASP283     -0.1239
    211  CA        78.3130   62.8500   91.4700 C.3   283  ASP283      0.1674
    212  C         79.2480   62.1560   90.4850 C.2   283  ASP283      0.2266
    213  O         78.9090   61.1180   89.9180 O.2   283  ASP283     -0.2867
    214  CB        77.4290   61.8250   92.2040 C.3   283  ASP283      0.1410
    215  CG        78.2440   60.8400   93.0600 C.2   283  ASP283      0.3668
    216  OD1       79.4500   61.0810   93.3070 O.co2 283  ASP283     -0.2456
    217  OD2       77.6840   59.8090   93.4640 O.co2 283  ASP283     -0.2456
    218  N         84.5830   55.0840   96.6950 N.3   288  THR288     -0.1218
    219  CA        83.7340   55.3910   97.8450 C.3   288  THR288      0.1862
    220  C         84.5200   55.1220   99.1360 C.2   288  THR288      0.2287
    221  O         85.7390   54.8790   99.1000 O.2   288  THR288     -0.2866
    222  CB        82.4340   54.5390   97.8540 C.3   288  THR288      0.1770
    223  OG1       82.5920   53.4060   96.9840 O.3   288  THR288     -0.2211
    224  CG2       81.2220   55.3850   97.4230 C.3   288  THR288      0.0375
@<TRIPOS>BOND
     1    47    46    2
     2    46    45    1
     3    44    45    1
     4    39    38    2
     5    45    48    1
     6    38    37    1
     7    48    49    1
     8    36    37    1
     9    86    85    2
    10    49    50    1
    11    37    40    1
    12    79    78    2
    13    85    84    1
    14    50    51    1
    15    83    84    1
    16    78    77    1
    17    40    41    1
    18    41    42    1
    19    41    43    1
    20    76    77    1
    21    84    87    1
    22    77    80    1
    23    92    93    1
    24    51    52    2
    25   125   124    2
    26    94    95    2
    27    94    93    1
    28    87    88    1
    29    53    52    1
    30   116   115    2
    31    52    54    1
    32    93    96    1
    33    80    82    1
    34    80    81    1
    35    91    89   ar
    36   124   123    1
    37    88    89    1
    38   122   123    1
    39   115   114    1
    40    89    90   ar
    41   113   114    1
    42    96    97    1
    43   123   126    1
    44   114   117    1
    45   126   127    1
    46    75    74    2
    47    97    99    1
    48    97    98    1
    49   128   127    1
    50    74    73    1
    51   118   117    1
    52   118   119    1
    53   148   147    2
    54   127   129    1
    55   145   146    1
    56    73    72    1
    57   147   146    1
    58   121   119   am
    59   119   120    2
    60   110   109    2
    61    72    66   am
    62   146   149    1
    63   109   108    1
    64   154   155    1
    65    67    66    2
    66    68    69    1
    67    68    65    1
    68    66    65    1
    69    71    69   ar
    70   160   162   ar
    71   160   159   ar
    72   158   159    1
    73   158   155    1
    74    69    70   ar
    75   149   150    1
    76   162   163   ar
    77    65    64    1
    78   159   161   ar
    79   111   108    1
    80   111   112    1
    81   157   156    2
    82   155   156    1
    83   213   212    2
    84   108   107    1
    85   142   141    2
    86   180   179    2
    87    64    57   am
    88   150   151    1
    89   212   211    1
    90   156   168   am
    91   210   211    1
    92   163   161   ar
    93   163   165   ar
    94   182   181    1
    95   141   140    1
    96   161   164   ar
    97   181   183    1
    98   181   178    1
    99    55    56    1
   100   107   102   am
   101   179   178    1
   102   179   184   am
   103   151   152    1
   104   103   102    2
   105   106   104    1
   106    57    56    1
   107    57    58    2
   108   211   214    1
   109   185   186    1
   110   185   184    1
   111   165   167   ar
   112   102   101    1
   113    31    30    2
   114   178   177    1
   115   164   166   ar
   116   168   169    1
   117   186   187    2
   118    56    59    1
   119   140   143    1
   120   140   139    1
   121   143   144    1
   122   214   215    1
   123   152   153    1
   124    34    33    2
   125   167   166   ar
   126    59    60    1
   127   169   170    1
   128   169   172    1
   129   205   204    2
   130    30    29    1
   131   176   174   am
   132   104   101    1
   133   104   105    1
   134   101   100    1
   135    35    33   am
   136   139   132   am
   137    33    32    1
   138   215   216   ar
   139   215   217   ar
   140   170   171    2
   141   204   203    1
   142   173   174    1
   143   173   172    1
   144   174   175    2
   145    60    61    1
   146   132   133    2
   147   132   131    1
   148    29    32    1
   149    29    28    1
   150   138   136   ar
   151   130   131    1
   152   134   131    1
   153   134   135    1
   154   206   203    1
   155   206   207    1
   156   203   202    1
   157   136   135    1
   158   136   137   ar
   159    61    62    1
   160   202   190   am
   161   207   209   ar
   162   207   208   ar
   163    62    63    1
   164   190   191    2
   165   190   189    1
   166   218   219    1
   167   188   189    1
   168   223   222    1
   169   192   189    1
   170   192   193    1
   171     7     5    1
   172   224   222    1
   173   219   222    1
   174   219   220    1
   175   193   194   ar
   176   193   195   ar
   177   194   196   ar
   178     5     6    1
   179     5     2    1
   180   221   220    2
   181   195   198   ar
   182   195   197   ar
   183    20    19    1
   184   196   197   ar
   185     2     1    1
   186     2     3    1
   187   198   200   ar
   188    19    16    1
   189   197   199   ar
   190    14    12    1
   191     3     8   am
   192     3     4    2
   193   200   201   ar
   194     8     9    1
   195   199   201   ar
   196    15    16    1
   197    15    10   am
   198    16    17    1
   199    13    12    1
   200    12     9    1
   201    17    18    2
   202     9    10    1
   203    10    11    2
   204    25    26    1
   205    25    27    1
   206    25    22    1
   207    21    22    1
   208    23    22    1
   209    23    24    2
