@<TRIPOS>MOLECULE
tmp/1tyzC00.pdb
 136 129 0 0 0
SMALL
GASTEIGER

@<TRIPOS>ATOM
      1  N         10.7420   24.9410  103.9260 N.3    50  ASN50      -0.1225
      2  CA        10.7560   26.0040  102.9020 C.3    50  ASN50       0.1785
      3  C         11.9420   26.9350  102.9220 C.2    50  ASN50       0.2597
      4  O         12.4660   27.2600  101.8750 O.2    50  ASN50      -0.2718
      5  CB         9.4670   26.8290  102.9270 C.3    50  ASN50       0.1169
      6  CG         9.3740   27.7530  104.1280 C.2    50  ASN50       0.2627
      7  OD1        9.7260   27.3700  105.2450 O.2    50  ASN50      -0.2716
      8  ND2        8.8740   28.9700  103.9060 N.am   50  ASN50      -0.0877
      9  N         12.3650   27.3710  104.1060 N.am   51  LYS51      -0.1980
     10  CA        13.5100   28.2780  104.1970 C.3    51  LYS51       0.1596
     11  C         14.7810   27.7260  103.5430 C.2    51  LYS51       0.2287
     12  O         15.5910   28.4860  103.0080 O.2    51  LYS51      -0.2864
     13  CB        13.7960   28.6030  105.6600 C.3    51  LYS51       0.0298
     14  CG        12.5780   29.1340  106.3840 C.3    51  LYS51       0.0038
     15  CD        12.1090   30.4260  105.7310 C.3    51  LYS51       0.0206
     16  CE        11.1100   31.1060  106.6210 C.3    51  LYS51       0.1093
     17  NZ         9.9000   30.2910  106.6130 N.3    51  LYS51      -0.1314
     18  N         14.7720   28.4410   99.9340 N.3    54  LYS54      -0.1245
     19  CA        15.1470   29.8340   99.6630 C.3    54  LYS54       0.1561
     20  C         16.6480   30.0130   99.7600 C.2    54  LYS54       0.2260
     21  O         17.2450   30.7160   98.9640 O.2    54  LYS54      -0.2867
     22  CB        14.4980   30.8020  100.6680 C.3    54  LYS54       0.0271
     23  CG        12.9750   30.7900  100.7830 C.3    54  LYS54       0.0035
     24  CD        12.5560   31.8170  101.8830 C.3    54  LYS54       0.0206
     25  CE        11.0680   31.8860  102.0630 C.3    54  LYS54       0.1093
     26  NZ        10.6830   32.9980  103.0230 N.3    54  LYS54      -0.1314
     27  N         11.7880   28.6610  112.5670 N.3    79  ASN79      -0.1225
     28  CA        12.2880   27.5520  111.7690 C.3    79  ASN79       0.1785
     29  C         13.4770   28.0280  110.9510 C.2    79  ASN79       0.2597
     30  O         14.4160   27.2940  110.7100 O.2    79  ASN79      -0.2718
     31  CB        11.2110   27.0490  110.8310 C.3    79  ASN79       0.1169
     32  CG        10.0720   26.4720  111.5480 C.2    79  ASN79       0.2627
     33  OD1       10.2180   25.4920  112.3070 O.2    79  ASN79      -0.2716
     34  ND2        8.9050   27.0460  111.3270 N.am   79  ASN79      -0.0877
     35  N         13.4240   29.2940  110.5430 N.am   80  GLN80      -0.1979
     36  CA        14.4620   29.8950  109.7380 C.3    80  GLN80       0.1601
     37  C         15.8480   29.8840  110.3780 C.2    80  GLN80       0.2287
     38  O         16.8410   29.4900  109.7540 O.2    80  GLN80      -0.2864
     39  CB        14.0140   31.3260  109.3910 C.3    80  GLN80       0.0394
     40  CG        15.1090   32.3620  109.2180 C.3    80  GLN80       0.0908
     41  CD        15.5800   32.4640  107.7880 C.2    80  GLN80       0.2608
     42  OE1       14.8550   32.1220  106.8670 O.2    80  GLN80      -0.2717
     43  NE2       16.8030   32.9490  107.5960 N.am   80  GLN80      -0.0878
     44  N         17.3280   26.4360  110.3280 N.3    83  GLN83      -0.1245
     45  CA        17.8430   26.0060  109.0270 C.3    83  GLN83       0.1566
     46  C         19.1400   26.7310  108.6920 C.2    83  GLN83       0.2260
     47  O         20.0440   26.1370  108.1130 O.2    83  GLN83      -0.2867
     48  CB        16.7710   26.1900  107.9480 C.3    83  GLN83       0.0367
     49  CG        15.6100   25.2230  108.1970 C.3    83  GLN83       0.0905
     50  CD        14.3690   25.4890  107.3830 C.2    83  GLN83       0.2608
     51  OE1       14.3030   25.1680  106.1900 O.2    83  GLN83      -0.2717
     52  NE2       13.3630   26.0530  108.0290 N.am   83  GLN83      -0.0878
     53  N         13.0550   35.3140  107.9290 N.3   161  GLY161     -0.1225
     54  CA        12.4850   34.4360  106.9140 C.3   161  GLY161      0.1811
     55  C         13.1630   34.4530  105.5510 C.2   161  GLY161      0.2280
     56  O         12.6740   33.8220  104.6050 O.2   161  GLY161     -0.2866
     57  N          1.1270   28.6960  103.3730 N.3   196  CYS196     -0.1221
     58  CA         1.1120   29.5570  104.5530 C.3   196  CYS196      0.1808
     59  C          2.0480   30.7420  104.3430 C.2   196  CYS196      0.2602
     60  O          3.1620   30.5820  103.8410 O.2   196  CYS196     -0.2717
     61  CB         1.5370   28.7620  105.7910 C.3   196  CYS196      0.0970
     62  SG         1.6640   29.8170  107.2330 S.3   196  CYS196     -0.0800
     63  N          1.6320   31.9400  104.7540 N.am  197  SER197     -0.1938
     64  CA         2.4980   33.1060  104.5400 C.3   197  SER197      0.2055
     65  C          2.7080   34.0160  105.7540 C.2   197  SER197      0.2643
     66  O          1.7750   34.3150  106.4580 O.2   197  SER197     -0.2714
     67  CB         1.9380   33.9720  103.3870 C.3   197  SER197      0.2130
     68  OG         2.1510   33.3790  102.1150 O.3   197  SER197     -0.2179
     69  N          3.9440   34.4590  105.9880 N.am  198  VAL198     -0.1963
     70  CA         4.1880   35.3790  107.1020 C.3   198  VAL198      0.1727
     71  C          5.1610   36.4440  106.6680 C.2   198  VAL198      0.2617
     72  O          4.7870   37.6160  106.5830 O.2   198  VAL198     -0.2715
     73  CB         4.7160   34.6590  108.3740 C.3   198  VAL198      0.0290
     74  CG1        5.0580   35.7040  109.4900 C.3   198  VAL198      0.0023
     75  CG2        3.6420   33.7180  108.8920 C.3   198  VAL198      0.0023
     76  N          6.4010   36.0690  106.3760 N.am  199  THR199     -0.1937
     77  CA         7.3400   37.0870  105.9510 C.3   199  THR199      0.2028
     78  C          7.2280   37.3240  104.4390 C.2   199  THR199      0.2643
     79  O          7.7900   38.2950  103.9130 O.2   199  THR199     -0.2714
     80  CB         8.7770   36.7580  106.3940 C.3   199  THR199      0.1808
     81  OG1        9.2740   35.6330  105.6800 O.3   199  THR199     -0.2208
     82  CG2        8.7900   36.4380  107.9130 C.3   199  THR199      0.0379
     83  N          6.5200   36.4170  103.7480 N.am  200  GLY200     -0.1939
     84  CA         6.2370   36.6020  102.3280 C.3   200  GLY200      0.2014
     85  C          7.0080   36.1420  101.0990 C.2   200  GLY200      0.2640
     86  O          6.4050   36.0640  100.0320 O.2   200  GLY200     -0.2714
     87  N          8.2980   35.8480  101.1920 N.am  201  SER201     -0.1935
     88  CA         8.9950   35.4550   99.9900 C.3   201  SER201      0.2055
     89  C          8.6360   34.0690   99.4580 C.2   201  SER201      0.2643
     90  O          8.9450   33.7860   98.3120 O.2   201  SER201     -0.2714
     91  CB        10.5190   35.6130  100.1360 C.3   201  SER201      0.2130
     92  OG        11.1270   34.6410  100.9540 O.3   201  SER201     -0.2179
     93  N          7.9810   33.2250  100.2700 N.am  202  THR202     -0.1950
     94  CA         7.5610   31.8950   99.8060 C.3   202  THR202      0.1897
     95  C          6.4590   32.1010   98.7820 C.2   202  THR202      0.2313
     96  O          6.6350   31.7830   97.6060 O.2   202  THR202     -0.2863
     97  CB         6.9810   30.9960  100.9430 C.3   202  THR202      0.1794
     98  OG1        7.9780   30.8110  101.9470 O.3   202  THR202     -0.2208
     99  CG2        6.5750   29.5990  100.3710 C.3   202  THR202      0.0378
    100  N          2.4220   27.6970  111.9120 N.3   294  TYR294     -0.1227
    101  CA         2.3160   27.9170  110.4670 C.3   294  TYR294      0.1736
    102  C          1.4320   26.9650  109.6660 C.2   294  TYR294      0.2595
    103  O          0.2880   27.2930  109.3050 O.2   294  TYR294     -0.2718
    104  CB         3.7070   27.8760  109.8460 C.3   294  TYR294      0.0548
    105  CG         4.6830   28.8690  110.3950 C.ar  294  TYR294     -0.0200
    106  CD1        4.6640   30.1900  109.9610 C.ar  294  TYR294     -0.0009
    107  CD2        5.6370   28.4910  111.3440 C.ar  294  TYR294     -0.0009
    108  CE1        5.5570   31.1140  110.4490 C.ar  294  TYR294      0.0417
    109  CE2        6.5470   29.4050  111.8410 C.ar  294  TYR294      0.0417
    110  CZ         6.5000   30.7230  111.3860 C.ar  294  TYR294      0.1957
    111  OH         7.3950   31.6410  111.8490 O.3   294  TYR294     -0.2866
    112  N          1.9710   25.7740  109.4060 N.am  295  GLU295     -0.1979
    113  CA         1.2640   24.7940  108.5890 C.3   295  GLU295      0.1602
    114  C         -0.1050   24.3670  109.1020 C.2   295  GLU295      0.2287
    115  O         -1.0060   24.0510  108.3170 O.2   295  GLU295     -0.2864
    116  CB         2.1870   23.6050  108.3340 C.3   295  GLU295      0.0415
    117  CG         3.5520   24.0550  107.7710 C.3   295  GLU295      0.1163
    118  CD         3.4140   25.0340  106.6050 C.2   295  GLU295      0.3649
    119  OE1        2.9030   24.6000  105.5540 O.co2 295  GLU295     -0.2457
    120  OE2        3.7980   26.2250  106.7360 O.co2 295  GLU295     -0.2457
    121  N          5.3450   23.4630  104.1540 N.3   322  LEU322     -0.1231
    122  CA         6.5960   24.1910  104.3070 C.3   322  LEU322      0.1693
    123  C          7.5020   23.7520  105.4470 C.2   322  LEU322      0.2593
    124  O          8.6600   24.1730  105.5070 O.2   322  LEU322     -0.2718
    125  CB         6.2940   25.6920  104.4160 C.3   322  LEU322      0.0284
    126  CG         5.3170   26.1590  103.3170 C.3   322  LEU322      0.0019
    127  CD1        4.9340   27.6380  103.5570 C.3   322  LEU322      0.0001
    128  CD2        5.9450   25.9560  101.9300 C.3   322  LEU322      0.0001
    129  N          6.9770   22.9100  106.3380 N.am  323  GLY323     -0.1942
    130  CA         7.7800   22.3900  107.4420 C.3   323  GLY323      0.2014
    131  C          7.2900   22.8020  108.8180 C.2   323  GLY323      0.2639
    132  O          6.0970   22.7920  109.0800 O.2   323  GLY323     -0.2714
    133  N          8.2180   23.1450  109.7030 N.am  324  GLY324     -0.1954
    134  CA         7.8570   23.6340  111.0360 C.3   324  GLY324      0.1869
    135  C          7.3990   22.6880  112.1210 C.2   324  GLY324      0.2309
    136  O          7.0950   23.1160  113.2440 O.2   324  GLY324     -0.2863
@<TRIPOS>BOND
     1    96    95    2
     2    90    89    2
     3    95    94    1
     4    21    20    2
     5    89    88    1
     6    89    93   am
     7    19    20    1
     8    19    18    1
     9    19    22    1
    10    94    93    1
    11    94    97    1
    12    88    91    1
    13    88    87    1
    14    86    85    2
    15    91    92    1
    16    99    97    1
    17    22    23    1
    18    23    24    1
    19    97    98    1
    20    85    87   am
    21    85    84    1
    22     4     3    2
    23    24    25    1
    24   128   126    1
    25    25    26    1
    26    68    67    1
    27    84    83    1
    28     2     3    1
    29     2     5    1
    30     2     1    1
    31     3     9   am
    32     5     6    1
    33    12    11    2
    34   126   127    1
    35   126   125    1
    36    57    58    1
    37    67    64    1
    38    11    10    1
    39    83    78   am
    40    60    59    2
    41     8     6   am
    42    79    78    2
    43     9    10    1
    44     6     7    2
    45   121   122    1
    46    10    13    1
    47   122   125    1
    48   122   123    1
    49    59    58    1
    50    59    63   am
    51    78    77    1
    52    64    63    1
    53    64    65    1
    54    58    61    1
    55    56    55    2
    56   123   124    2
    57   123   129   am
    58    55    54    1
    59   119   118   ar
    60    13    14    1
    61    81    80    1
    62    15    14    1
    63    15    16    1
    64    65    69   am
    65    65    66    2
    66    61    62    1
    67    77    76    1
    68    77    80    1
    69    69    70    1
    70    51    50    2
    71   129   130    1
    72    76    71   am
    73    80    82    1
    74    72    71    2
    75   118   120   ar
    76   118   117    1
    77    17    16    1
    78    71    70    1
    79    42    41    2
    80    54    53    1
    81    70    73    1
    82    50    52   am
    83    50    49    1
    84   130   131    1
    85    43    41   am
    86   117   116    1
    87    41    40    1
    88    48    49    1
    89    48    45    1
    90    47    46    2
    91   115   114    2
    92   116   113    1
    93    73    75    1
    94    73    74    1
    95   113   114    1
    96   113   112    1
    97    46    45    1
    98   131   132    2
    99   131   133   am
   100    45    44    1
   101    40    39    1
   102   103   102    2
   103    39    36    1
   104   112   102   am
   105   102   101    1
   106   133   134    1
   107    36    37    1
   108    36    35    1
   109    38    37    2
   110   104   105    1
   111   104   101    1
   112   106   105   ar
   113   106   108   ar
   114   105   107   ar
   115   108   110   ar
   116   101   100    1
   117    35    29   am
   118    30    29    2
   119    31    32    1
   120    31    28    1
   121    29    28    1
   122   134   135    1
   123    34    32   am
   124   107   109   ar
   125   110   109   ar
   126   110   111    1
   127    32    33    2
   128    28    27    1
   129   135   136    2
