@<TRIPOS>MOLECULE
tmp/1tz2C01.pdb
 109 105 0 0 0
SMALL
GASTEIGER

@<TRIPOS>ATOM
      1  N         12.0610   26.8070  104.4940 N.3    51  LYS51      -0.1245
      2  CA        13.1640   27.7650  104.5630 C.3    51  LYS51       0.1561
      3  C         14.4470   27.2240  103.9420 C.2    51  LYS51       0.2260
      4  O         15.2790   27.9760  103.4110 O.2    51  LYS51      -0.2867
      5  CB        13.4410   28.1710  106.0190 C.3    51  LYS51       0.0271
      6  CG        12.2320   28.7580  106.7400 C.3    51  LYS51       0.0035
      7  CD        11.6840   29.9470  105.9880 C.3    51  LYS51       0.0206
      8  CE        10.5990   30.6030  106.7900 C.3    51  LYS51       0.1093
      9  NZ         9.4880   29.6670  107.0010 N.3    51  LYS51      -0.1314
     10  N         17.4930   35.4940  112.5240 N.3    73  ILE73      -0.1231
     11  CA        16.6740   35.9600  113.6240 C.3    73  ILE73       0.1692
     12  C         15.2790   35.3600  113.5540 C.2    73  ILE73       0.2593
     13  O         14.8150   34.9840  112.4840 O.2    73  ILE73      -0.2718
     14  CB        16.5890   37.5270  113.5010 C.3    73  ILE73       0.0266
     15  CG1       15.5080   38.1130  114.4130 C.3    73  ILE73       0.0019
     16  CG2       16.2750   37.8770  112.0330 C.3    73  ILE73       0.0020
     17  CD1       15.6050   39.6330  114.5910 C.3    73  ILE73       0.0001
     18  N         14.6120   35.2690  114.6930 N.am   74  GLY74      -0.1942
     19  CA        13.2710   34.7140  114.7050 C.3    74  GLY74       0.2014
     20  C         12.7810   34.5070  116.1250 C.2    74  GLY74       0.2639
     21  O         13.5330   34.7010  117.0860 O.2    74  GLY74      -0.2714
     22  N         11.5190   34.1270  116.2700 N.am   75  GLY75      -0.1954
     23  CA        10.9840   33.9090  117.6020 C.3    75  GLY75       0.1869
     24  C         11.5780   32.6500  118.2180 C.2    75  GLY75       0.2309
     25  O         12.2860   31.9060  117.5670 O.2    75  GLY75      -0.2863
     26  N         11.1300   29.5100  116.2440 N.3    78  SER78      -0.1202
     27  CA        11.3350   29.7720  114.8300 C.3    78  SER78       0.2020
     28  C         11.8910   28.5230  114.1370 C.2    78  SER78       0.2619
     29  O         12.7920   27.8770  114.6630 O.2    78  SER78      -0.2717
     30  CB        12.3370   30.9200  114.6620 C.3    78  SER78       0.2103
     31  OG        12.6960   31.1220  113.3050 O.3    78  SER78      -0.2182
     32  N         11.3520   28.1900  112.9640 N.am   79  ASN79      -0.1960
     33  CA        11.8490   27.0490  112.1970 C.3    79  ASN79       0.1819
     34  C         13.0080   27.5620  111.3780 C.2    79  ASN79       0.2621
     35  O         13.9450   26.8370  111.0800 O.2    79  ASN79      -0.2715
     36  CB        10.7730   26.5020  111.2460 C.3    79  ASN79       0.1195
     37  CG         9.5830   25.9670  111.9790 C.2    79  ASN79       0.2630
     38  OD1        9.6950   25.0100  112.7630 O.2    79  ASN79      -0.2716
     39  ND2        8.4270   26.5770  111.7490 N.am   79  ASN79      -0.0877
     40  N         12.9170   28.8390  111.0240 N.am   80  GLN80      -0.1977
     41  CA        13.9120   29.5200  110.2230 C.3    80  GLN80       0.1601
     42  C         15.2950   29.4590  110.8410 C.2    80  GLN80       0.2287
     43  O         16.2540   29.0760  110.1800 O.2    80  GLN80      -0.2864
     44  CB        13.4870   30.9910  110.0340 C.3    80  GLN80       0.0394
     45  CG        14.5940   31.9590  109.6060 C.3    80  GLN80       0.0908
     46  CD        15.0040   31.8030  108.1550 C.2    80  GLN80       0.2608
     47  OE1       14.2520   31.2770  107.3400 O.2    80  GLN80      -0.2717
     48  NE2       16.1970   32.2830  107.8210 N.am   80  GLN80      -0.0878
     49  N          8.5390   36.0830  120.4350 N.3   102  TRP102     -0.1241
     50  CA         7.6560   36.8630  119.5920 C.3   102  TRP102      0.1605
     51  C          6.2020   36.4590  119.7170 C.2   102  TRP102      0.2264
     52  O          5.3810   36.8510  118.8910 O.2   102  TRP102     -0.2867
     53  CB         8.0790   36.7290  118.1370 C.3   102  TRP102      0.0550
     54  CG         9.2690   37.5400  117.7800 C.ar  102  TRP102      0.0003
     55  CD1        9.9110   38.4660  118.5610 C.ar  102  TRP102      0.0946
     56  CD2        9.9260   37.5500  116.5160 C.ar  102  TRP102      0.0152
     57  NE1       10.9280   39.0550  117.8520 N.ar  102  TRP102     -0.2442
     58  CE2       10.9580   38.5120  116.5910 C.ar  102  TRP102      0.0810
     59  CE3        9.7400   36.8410  115.3220 C.ar  102  TRP102      0.0012
     60  CZ2       11.8040   38.7840  115.5130 C.ar  102  TRP102      0.0191
     61  CZ3       10.5800   37.1090  114.2480 C.ar  102  TRP102      0.0001
     62  CH2       11.6000   38.0740  114.3510 C.ar  102  TRP102      0.0015
     63  N         14.5480   37.8160  108.7780 N.3   160  ALA160     -0.1231
     64  CA        13.4860   36.9470  109.2520 C.3   160  ALA160      0.1694
     65  C         12.8900   36.1520  108.0880 C.2   160  ALA160      0.2592
     66  O         12.5320   36.7260  107.0510 O.2   160  ALA160     -0.2718
     67  CB        12.4000   37.7650  109.9140 C.3   160  ALA160      0.0304
     68  N         12.8110   34.8300  108.2720 N.am  161  GLY161     -0.1957
     69  CA        12.2550   33.9380  107.2760 C.3   161  GLY161      0.1869
     70  C         12.8570   33.9570  105.8900 C.2   161  GLY161      0.2309
     71  O         12.2540   33.4060  104.9630 O.2   161  GLY161     -0.2863
     72  N          3.4960   33.9790  106.3530 N.3   198  VAL198     -0.1231
     73  CA         3.7780   34.8720  107.4510 C.3   198  VAL198      0.1692
     74  C          4.7770   35.9350  107.0200 C.2   198  VAL198      0.2592
     75  O          4.3870   37.0910  106.9550 O.2   198  VAL198     -0.2718
     76  CB         4.2690   34.1360  108.7070 C.3   198  VAL198      0.0266
     77  CG1        4.5720   35.1590  109.8350 C.3   198  VAL198      0.0020
     78  CG2        3.1930   33.1570  109.1610 C.3   198  VAL198      0.0020
     79  N          6.0370   35.5910  106.7230 N.am  199  THR199     -0.1953
     80  CA         6.9670   36.6460  106.3040 C.3   199  THR199      0.1897
     81  C          6.8760   36.8500  104.7940 C.2   199  THR199      0.2313
     82  O          7.4760   37.7680  104.2430 O.2   199  THR199     -0.2863
     83  CB         8.4380   36.3950  106.7190 C.3   199  THR199      0.1794
     84  OG1        8.9340   35.2140  106.0890 O.3   199  THR199     -0.2208
     85  CG2        8.5510   36.2520  108.2170 C.3   199  THR199      0.0378
     86  N         -0.3620   35.4080  116.1050 N.3   268  TYR268     -0.1241
     87  CA         0.7220   34.6250  115.5760 C.3   268  TYR268      0.1605
     88  C          1.2110   33.7710  116.7540 C.2   268  TYR268      0.2264
     89  O          1.3530   34.2760  117.8610 O.2   268  TYR268     -0.2867
     90  CB         1.8600   35.5280  115.1310 C.3   268  TYR268      0.0534
     91  CG         3.1380   34.7620  114.9120 C.ar  268  TYR268     -0.0201
     92  CD1        3.2900   33.9290  113.8060 C.ar  268  TYR268     -0.0009
     93  CD2        4.1570   34.7900  115.8600 C.ar  268  TYR268     -0.0009
     94  CE1        4.4100   33.1390  113.6500 C.ar  268  TYR268      0.0417
     95  CE2        5.2920   33.9970  115.7130 C.ar  268  TYR268      0.0417
     96  CZ         5.4080   33.1640  114.6040 C.ar  268  TYR268      0.1957
     97  OH         6.4870   32.3170  114.4910 O.3   268  TYR268     -0.2866
     98  N          2.0150   27.2530  112.2070 N.3   294  TYR294     -0.1241
     99  CA         1.9210   27.4770  110.7690 C.3   294  TYR294      0.1605
    100  C          1.0440   26.4830  110.0110 C.2   294  TYR294      0.2264
    101  O         -0.1410   26.7510  109.7470 O.2   294  TYR294     -0.2867
    102  CB         3.3200   27.4670  110.1360 C.3   294  TYR294      0.0534
    103  CG         4.2950   28.4670  110.7220 C.ar  294  TYR294     -0.0201
    104  CD1        5.2430   28.0700  111.6640 C.ar  294  TYR294     -0.0009
    105  CD2        4.2700   29.8080  110.3330 C.ar  294  TYR294     -0.0009
    106  CE1        6.1450   28.9730  112.2010 C.ar  294  TYR294      0.0417
    107  CE2        5.1580   30.7230  110.8660 C.ar  294  TYR294      0.0417
    108  CZ         6.0980   30.3090  111.8000 C.ar  294  TYR294      0.1957
    109  OH         6.9860   31.2250  112.3270 O.3   294  TYR294     -0.2866
@<TRIPOS>BOND
     1     4     3    2
     2     3     2    1
     3    82    81    2
     4     1     2    1
     5     2     5    1
     6    81    80    1
     7    71    70    2
     8    70    69    1
     9     7     6    1
    10     7     8    1
    11     5     6    1
    12    84    83    1
    13    80    83    1
    14    80    79    1
    15    72    73    1
    16    83    85    1
    17    79    74   am
    18     8     9    1
    19    75    74    2
    20    74    73    1
    21    66    65    2
    22    69    68    1
    23    47    46    2
    24    73    76    1
    25    48    46   am
    26    65    68   am
    27    65    64    1
    28    46    45    1
    29    76    78    1
    30    76    77    1
    31    63    64    1
    32    64    67    1
    33    45    44    1
    34   101   100    2
    35   100    99    1
    36    44    41    1
    37   102   103    1
    38   102    99    1
    39    43    42    2
    40    41    42    1
    41    41    40    1
    42   105   103   ar
    43   105   107   ar
    44   103   104   ar
    45    99    98    1
    46   107   108   ar
    47    40    34   am
    48    35    34    2
    49    36    37    1
    50    36    33    1
    51    34    33    1
    52   104   106   ar
    53    39    37   am
    54   108   106   ar
    55   108   109    1
    56    37    38    2
    57    16    14    1
    58    33    32    1
    59    13    12    2
    60    10    11    1
    61    32    28   am
    62    31    30    1
    63    14    11    1
    64    14    15    1
    65    12    11    1
    66    12    18   am
    67    94    92   ar
    68    94    96   ar
    69    92    91   ar
    70    28    29    2
    71    28    27    1
    72    61    62   ar
    73    61    59   ar
    74    62    60   ar
    75    15    17    1
    76    97    96    1
    77    96    95   ar
    78    30    27    1
    79    18    19    1
    80    19    20    1
    81    27    26    1
    82    91    90    1
    83    91    93   ar
    84    90    87    1
    85    59    56   ar
    86    60    58   ar
    87    87    86    1
    88    87    88    1
    89    95    93   ar
    90    20    22   am
    91    20    21    2
    92    22    23    1
    93    56    58   ar
    94    56    54   ar
    95    58    57   ar
    96    88    89    2
    97    25    24    2
    98    23    24    1
    99    54    53    1
   100    54    55   ar
   101    57    55   ar
   102    53    50    1
   103    52    51    2
   104    50    51    1
   105    50    49    1
