@<TRIPOS>MOLECULE
tmp/1tz6A00.pdb
 182 168 0 0 0
SMALL
GASTEIGER

@<TRIPOS>ATOM
      1  N         15.5700  -11.7950    2.1480 N.3   147  ASP147     -0.1225
      2  CA        16.8100  -11.3950    1.5160 C.3   147  ASP147      0.1805
      3  C         16.4920  -10.3530    0.4560 C.2   147  ASP147      0.2598
      4  O         15.9640  -10.6880   -0.6000 O.2   147  ASP147     -0.2718
      5  CB        17.4950  -12.6060    0.8810 C.3   147  ASP147      0.1424
      6  CG        18.6910  -12.2240    0.0280 C.2   147  ASP147      0.3668
      7  OD1       19.2180  -11.0990    0.1820 O.co2 147  ASP147     -0.2456
      8  OD2       19.1130  -13.0610   -0.7980 O.co2 147  ASP147     -0.2456
      9  N         16.7610   -9.0850    0.7470 N.am  148  VAL148     -0.1966
     10  CA        16.5050   -8.0680   -0.2570 C.3   148  VAL148      0.1727
     11  C         17.5270   -8.3700   -1.3370 C.2   148  VAL148      0.2616
     12  O         18.7250   -8.1580   -1.1480 O.2   148  VAL148     -0.2715
     13  CB        16.7150   -6.6260    0.2800 C.3   148  VAL148      0.0290
     14  CG1       17.9230   -6.5620    1.1660 C.3   148  VAL148      0.0023
     15  CG2       16.8880   -5.6640   -0.8870 C.3   148  VAL148      0.0023
     16  N         17.0620   -8.9140   -2.4540 N.am  149  ASN149     -0.1958
     17  CA        17.9590   -9.2440   -3.5550 C.3   149  ASN149      0.1819
     18  C         17.5580   -8.3180   -4.6960 C.2   149  ASN149      0.2621
     19  O         16.9870   -8.7490   -5.6990 O.2   149  ASN149     -0.2715
     20  CB        17.7760  -10.7100   -3.9710 C.3   149  ASN149      0.1195
     21  CG        19.0170  -11.2920   -4.6270 C.2   149  ASN149      0.2630
     22  OD1       19.6440  -10.6570   -5.4800 O.2   149  ASN149     -0.2716
     23  ND2       19.3740  -12.5110   -4.2360 N.am  149  ASN149     -0.0877
     24  N         17.8600   -7.0370   -4.5280 N.am  150  LEU150     -0.1963
     25  CA        17.4940   -6.0180   -5.5010 C.3   150  LEU150      0.1728
     26  C         17.9320   -6.2340   -6.9440 C.2   150  LEU150      0.2616
     27  O         19.0800   -6.5670   -7.2210 O.2   150  LEU150     -0.2715
     28  CB        17.9960   -4.6620   -5.0180 C.3   150  LEU150      0.0311
     29  CG        17.0580   -3.4800   -5.2480 C.3   150  LEU150      0.0022
     30  CD1       15.6250   -3.8790   -4.9040 C.3   150  LEU150      0.0001
     31  CD2       17.5170   -2.3080   -4.3820 C.3   150  LEU150      0.0001
     32  N         16.9820   -6.0370   -7.8520 N.am  151  ARG151     -0.1977
     33  CA        17.1810   -6.1490   -9.3020 C.3   151  ARG151      0.1597
     34  C         16.2450   -5.1010   -9.9280 C.2   151  ARG151      0.2287
     35  O         15.3390   -5.4340  -10.6970 O.2   151  ARG151     -0.2864
     36  CB        16.7900   -7.5490   -9.8120 C.3   151  ARG151      0.0334
     37  CG        17.5630   -8.7030   -9.1990 C.3   151  ARG151      0.0492
     38  CD        19.0220   -8.7010   -9.6340 C.3   151  ARG151      0.2205
     39  NE        19.8950   -9.4400   -8.7200 N.pl3 151  ARG151     -0.0865
     40  CZ        19.7940  -10.7400   -8.4670 C.cat 151  ARG151      0.5346
     41  NH1       18.8510  -11.4530   -9.0610 N.pl3 151  ARG151      0.1354
     42  NH2       20.6360  -11.3320   -7.6300 N.pl3 151  ARG151      0.1354
     43  N         18.5970  -10.2010    5.2590 N.3   176  LYS176     -0.1245
     44  CA        19.9390  -10.3140    4.7150 C.3   176  LYS176      0.1561
     45  C         20.0310   -9.2840    3.6010 C.2   176  LYS176      0.2260
     46  O         19.1470   -9.2030    2.7590 O.2   176  LYS176     -0.2867
     47  CB        20.1790  -11.7160    4.1590 C.3   176  LYS176      0.0271
     48  CG        21.6520  -12.0880    4.0130 C.3   176  LYS176      0.0035
     49  CD        22.3680  -11.3660    2.8630 C.3   176  LYS176      0.0206
     50  CE        22.2080  -12.0950    1.5350 C.3   176  LYS176      0.1093
     51  NZ        23.0420  -11.5170    0.4360 N.3   176  LYS176     -0.1314
     52  N         23.0820   -6.8400    1.0920 N.3   178  SER178     -0.1217
     53  CA        24.4760   -6.6040    0.7280 C.3   178  SER178      0.1889
     54  C         24.7920   -5.1320    0.9070 C.2   178  SER178      0.2288
     55  O         23.8980   -4.2820    0.8300 O.2   178  SER178     -0.2866
     56  CB        24.7380   -6.9930   -0.7250 C.3   178  SER178      0.2089
     57  OG        24.1330   -6.0580   -1.6020 O.3   178  SER178     -0.2183
     58  N         26.1610   -3.1330   -0.9960 N.3   180  ASP180     -0.1225
     59  CA        25.7500   -2.4550   -2.2140 C.3   180  ASP180      0.1805
     60  C         24.2600   -2.1250   -2.2900 C.2   180  ASP180      0.2597
     61  O         23.8900   -1.0190   -2.6950 O.2   180  ASP180     -0.2718
     62  CB        26.1500   -3.2890   -3.4280 C.3   180  ASP180      0.1424
     63  CG        26.2030   -2.4670   -4.6970 C.2   180  ASP180      0.3668
     64  OD1       25.1730   -1.8480   -5.0450 O.co2 180  ASP180     -0.2456
     65  OD2       27.2740   -2.4350   -5.3430 O.co2 180  ASP180     -0.2456
     66  N         23.4090   -3.0730   -1.9080 N.am  181  GLU181     -0.1979
     67  CA        21.9660   -2.8520   -1.9610 C.3   181  GLU181      0.1602
     68  C         21.5300   -1.7640   -0.9810 C.2   181  GLU181      0.2287
     69  O         20.6320   -0.9720   -1.2800 O.2   181  GLU181     -0.2864
     70  CB        21.2260   -4.1620   -1.6770 C.3   181  GLU181      0.0415
     71  CG        21.6750   -5.2940   -2.5860 C.3   181  GLU181      0.1163
     72  CD        21.1120   -6.6410   -2.1870 C.2   181  GLU181      0.3649
     73  OE1       21.1920   -6.9910   -0.9920 O.co2 181  GLU181     -0.2457
     74  OE2       20.6000   -7.3590   -3.0700 O.co2 181  GLU181     -0.2457
     75  N         26.0410   -8.7240    3.9460 N.3   209  SER209     -0.1217
     76  CA        27.1260   -9.4540    3.2870 C.3   209  SER209      0.1889
     77  C         28.1200   -8.4790    2.6460 C.2   209  SER209      0.2288
     78  O         27.7360   -7.5420    1.9420 O.2   209  SER209     -0.2866
     79  CB        26.5540  -10.4160    2.2390 C.3   209  SER209      0.2089
     80  OG        25.6940   -9.7330    1.3480 O.3   209  SER209     -0.2183
     81  N         30.9700   -8.6750    0.1710 N.3   211  GLY211     -0.1210
     82  CA        31.8400   -9.2640   -0.8320 C.3   211  GLY211      0.1956
     83  C         32.8210  -10.2860   -0.2920 C.2   211  GLY211      0.2611
     84  O         32.4380  -11.1860    0.4420 O.2   211  GLY211     -0.2717
     85  N         34.0930  -10.1440   -0.6460 N.am  212  ALA212     -0.1979
     86  CA        35.1180  -11.0740   -0.1910 C.3   212  ALA212      0.1597
     87  C         35.4550  -10.8910    1.2930 C.2   212  ALA212      0.2287
     88  O         36.1870  -11.6990    1.8780 O.2   212  ALA212     -0.2864
     89  CB        36.3650  -10.9040   -1.0400 C.3   212  ALA212      0.0319
     90  N         33.2550  -10.9230    3.8780 N.3   214  GLY214     -0.1225
     91  CA        32.4730  -11.8130    4.7190 C.3   214  GLY214      0.1811
     92  C         31.1140  -11.1770    4.9700 C.2   214  GLY214      0.2280
     93  O         30.3440  -10.9430    4.0320 O.2   214  GLY214     -0.2866
     94  N         35.2420  -13.8810    5.4030 N.3   228  ALA228     -0.1231
     95  CA        35.0120  -14.8790    4.3730 C.3   228  ALA228      0.1679
     96  C         36.3370  -15.5260    3.9840 C.2   228  ALA228      0.2434
     97  O         37.3430  -14.8420    3.8170 O.2   228  ALA228     -0.2733
     98  CB        34.3720  -14.2280    3.1540 C.3   228  ALA228      0.0304
     99  N         36.3490  -16.8590    3.8320 N.am  229  PRO229     -0.2729
    100  CA        37.5500  -17.6080    3.4610 C.3   229  PRO229      0.1401
    101  C         38.2990  -17.0170    2.2730 C.2   229  PRO229      0.2269
    102  O         37.7300  -16.2860    1.4430 O.2   229  PRO229     -0.2865
    103  CB        37.0030  -18.9970    3.1430 C.3   229  PRO229      0.0296
    104  CG        35.8660  -19.1220    4.0810 C.3   229  PRO229      0.0237
    105  CD        35.1980  -17.7690    3.9680 C.3   229  PRO229      0.0939
    106  N         39.5100  -17.3670   -1.0300 N.3   231  VAL231     -0.1245
    107  CA        39.1920  -18.1510   -2.2190 C.3   231  VAL231      0.1561
    108  C         39.3510  -17.3900   -3.5400 C.2   231  VAL231      0.2260
    109  O         39.2220  -16.1650   -3.5920 O.2   231  VAL231     -0.2867
    110  CB        37.7450  -18.7090   -2.1180 C.3   231  VAL231      0.0252
    111  CG1       37.3370  -19.3550   -3.4170 C.3   231  VAL231      0.0019
    112  CG2       37.6610  -19.7280   -0.9910 C.3   231  VAL231      0.0019
    113  N         38.1690  -16.2610   -7.1180 N.3   233  VAL233     -0.1245
    114  CA        36.9630  -15.9890   -7.9170 C.3   233  VAL233      0.1561
    115  C         37.0070  -16.4450   -9.3730 C.2   233  VAL233      0.2260
    116  O         37.9230  -16.1070  -10.1200 O.2   233  VAL233     -0.2867
    117  CB        36.5990  -14.4710   -7.9340 C.3   233  VAL233      0.0252
    118  CG1       35.5610  -14.1970   -9.0300 C.3   233  VAL233      0.0019
    119  CG2       36.0590  -14.0340   -6.5640 C.3   233  VAL233      0.0019
    120  N         31.1740  -15.0960   -9.4880 N.3   236  THR236     -0.1218
    121  CA        30.5280  -14.6840   -8.2470 C.3   236  THR236      0.1862
    122  C         29.0580  -15.0800   -8.2560 C.2   236  THR236      0.2287
    123  O         28.4490  -15.2410   -7.2020 O.2   236  THR236     -0.2866
    124  CB        30.6460  -13.1560   -8.0250 C.3   236  THR236      0.1770
    125  OG1       30.3490  -12.4690   -9.2420 O.3   236  THR236     -0.2211
    126  CG2       32.0380  -12.7880   -7.5690 C.3   236  THR236      0.0375
    127  N         25.9110  -16.3110   -7.6270 N.3   238  GLY238     -0.1210
    128  CA        25.4370  -17.2560   -6.6440 C.3   238  GLY238      0.1956
    129  C         25.9570  -17.1010   -5.2290 C.2   238  GLY238      0.2612
    130  O         25.3740  -17.6720   -4.3050 O.2   238  GLY238     -0.2717
    131  N         27.0390  -16.3420   -5.0520 N.am  239  ALA239     -0.1965
    132  CA        27.6300  -16.1400   -3.7320 C.3   239  ALA239      0.1728
    133  C         26.5690  -15.8250   -2.6920 C.2   239  ALA239      0.2617
    134  O         26.4300  -16.5380   -1.7050 O.2   239  ALA239     -0.2715
    135  CB        28.6470  -15.0160   -3.7840 C.3   239  ALA239      0.0334
    136  N         25.8180  -14.7540   -2.9270 N.am  240  GLY240     -0.1940
    137  CA        24.7760  -14.3500   -2.0000 C.3   240  GLY240      0.2014
    138  C         23.7590  -15.4330   -1.6870 C.2   240  GLY240      0.2638
    139  O         23.4020  -15.6460   -0.5250 O.2   240  GLY240     -0.2714
    140  N         23.2850  -16.1270   -2.7160 N.am  241  ASP241     -0.1971
    141  CA        22.2990  -17.1760   -2.4980 C.3   241  ASP241      0.1709
    142  C         22.8930  -18.3510   -1.7310 C.2   241  ASP241      0.2293
    143  O         22.2140  -18.9570   -0.9060 O.2   241  ASP241     -0.2864
    144  CB        21.6980  -17.6490   -3.8280 C.3   241  ASP241      0.1436
    145  CG        20.9310  -16.5460   -4.5530 C.2   241  ASP241      0.3671
    146  OD1       20.2540  -15.7460   -3.8700 O.co2 241  ASP241     -0.2456
    147  OD2       20.9900  -16.4840   -5.8040 O.co2 241  ASP241     -0.2456
    148  N         25.1950  -18.0730    0.3650 N.3   243  PHE243     -0.1241
    149  CA        25.3650  -17.5190    1.6870 C.3   243  PHE243      0.1605
    150  C         24.1120  -17.7650    2.5170 C.2   243  PHE243      0.2264
    151  O         24.1870  -18.2780    3.6400 O.2   243  PHE243     -0.2867
    152  CB        25.6020  -16.0250    1.5870 C.3   243  PHE243      0.0534
    153  CG        25.8400  -15.3710    2.9060 C.ar  243  PHE243     -0.0203
    154  CD1       27.1210  -15.3210    3.4510 C.ar  243  PHE243     -0.0042
    155  CD2       24.7820  -14.8240    3.6200 C.ar  243  PHE243     -0.0042
    156  CE1       27.3450  -14.7390    4.6770 C.ar  243  PHE243     -0.0003
    157  CE2       24.9940  -14.2370    4.8530 C.ar  243  PHE243     -0.0003
    158  CZ        26.2810  -14.1940    5.3830 C.ar  243  PHE243     -0.0000
    159  N         29.3610  -17.8750    5.3820 N.3   270  ASN270     -0.1240
    160  CA        30.5410  -17.3910    4.6730 C.3   270  ASN270      0.1653
    161  C         31.2420  -18.5230    3.9660 C.2   270  ASN270      0.2266
    162  O         31.6680  -18.3750    2.8270 O.2   270  ASN270     -0.2867
    163  CB        31.5200  -16.7010    5.6170 C.3   270  ASN270      0.1155
    164  CG        31.1400  -15.2810    5.8850 C.2   270  ASN270      0.2627
    165  OD1       30.7850  -14.5460    4.9680 O.2   270  ASN270     -0.2716
    166  ND2       31.2150  -14.8750    7.1440 N.am  270  ASN270     -0.0877
    167  N         29.3860  -19.1580    0.9340 N.3   273  GLY273     -0.1210
    168  CA        29.5420  -18.0390    0.0290 C.3   273  GLY273      0.1956
    169  C         30.8580  -18.1200   -0.7110 C.2   273  GLY273      0.2611
    170  O         30.9210  -17.8390   -1.9070 O.2   273  GLY273     -0.2717
    171  N         31.9110  -18.5120    0.0030 N.am  274  ALA274     -0.1979
    172  CA        33.2380  -18.6280   -0.5910 C.3   274  ALA274      0.1597
    173  C         33.2500  -19.7050   -1.6690 C.2   274  ALA274      0.2287
    174  O         33.4520  -19.4150   -2.8450 O.2   274  ALA274     -0.2864
    175  CB        34.2670  -18.9530    0.4860 C.3   274  ALA274      0.0319
    176  N         31.7070  -19.3600   -5.1820 N.3   277  VAL277     -0.1245
    177  CA        32.3180  -18.4790   -6.1700 C.3   277  VAL277      0.1561
    178  C         33.4840  -19.1430   -6.9030 C.2   277  VAL277      0.2260
    179  O         34.2080  -18.4820   -7.6420 O.2   277  VAL277     -0.2867
    180  CB        32.8320  -17.1660   -5.5380 C.3   277  VAL277      0.0252
    181  CG1       31.7200  -16.4810   -4.7830 C.3   277  VAL277      0.0019
    182  CG2       33.9950  -17.4470   -4.6220 C.3   277  VAL277      0.0019
@<TRIPOS>BOND
     1    35    34    2
     2   116   115    2
     3    34    33    1
     4    36    33    1
     5    36    37    1
     6    38    37    1
     7    38    39    1
     8   120   121    1
     9   115   114    1
    10    33    32    1
    11   125   124    1
    12    41    40    1
    13   118   117    1
    14    39    40    2
    15    40    42    1
    16   122   121    1
    17   122   123    2
    18   121   124    1
    19   124   126    1
    20   117   114    1
    21   117   119    1
    22   114   113    1
    23    32    26   am
    24   179   178    2
    25   127   128    1
    26    27    26    2
    27    26    25    1
    28   178   177    1
    29   128   129    1
    30   177   180    1
    31   177   176    1
    32   147   145   ar
    33    19    18    2
    34   180   181    1
    35   180   182    1
    36    25    28    1
    37    25    24    1
    38    22    21    2
    39    65    63   ar
    40    29    28    1
    41    29    30    1
    42    29    31    1
    43   129   131   am
    44   129   130    2
    45   131   132    1
    46    64    63   ar
    47    63    62    1
    48    18    24   am
    49    18    17    1
    50    21    23   am
    51    21    20    1
    52   145   146   ar
    53   145   144    1
    54    20    17    1
    55   144   141    1
    56   135   132    1
    57   132   133    1
    58   109   108    2
    59    17    16    1
    60   108   107    1
    61    62    59    1
    62   111   110    1
    63    74    72   ar
    64   136   133   am
    65   136   137    1
    66   174   173    2
    67   140   141    1
    68   140   138   am
    69    61    60    2
    70   133   134    2
    71    71    72    1
    72    71    70    1
    73   141   142    1
    74    16    11   am
    75    60    59    1
    76    60    66   am
    77   107   110    1
    78   107   106    1
    79    59    58    1
    80    72    73   ar
    81   110   112    1
    82   137   138    1
    83    67    66    1
    84    67    70    1
    85    67    68    1
    86   170   169    2
    87   142   143    2
    88   138   139    2
    89   173   172    1
    90    57    56    1
    91    11    12    2
    92    11    10    1
    93    69    68    2
    94    89    86    1
    95    15    13    1
    96    82    83    1
    97    82    81    1
    98     8     6   ar
    99    56    53    1
   100   169   171   am
   101   169   168    1
   102    85    83   am
   103    85    86    1
   104     4     3    2
   105   172   171    1
   106   172   175    1
   107    83    84    2
   108    10    13    1
   109    10     9    1
   110    86    87    1
   111     6     7   ar
   112     6     5    1
   113   168   167    1
   114    13    14    1
   115   148   149    1
   116    51    50    1
   117     3     9   am
   118     3     2    1
   119    53    54    1
   120    53    52    1
   121    55    54    2
   122     5     2    1
   123    87    88    2
   124    80    79    1
   125   102   101    2
   126     2     1    1
   127    50    49    1
   128   152   149    1
   129   152   153    1
   130   149   150    1
   131    78    77    2
   132    79    76    1
   133   101   100    1
   134   150   151    2
   135    77    76    1
   136    46    45    2
   137   162   161    2
   138    49    48    1
   139   153   154   ar
   140   153   155   ar
   141   103   100    1
   142   103   104    1
   143    98    95    1
   144    76    75    1
   145   154   156   ar
   146   100    99    1
   147    45    44    1
   148   155   157   ar
   149    97    96    2
   150    99   105    1
   151    99    96   am
   152    90    91    1
   153   161   160    1
   154   105   104    1
   155    96    95    1
   156    48    47    1
   157    93    92    2
   158    47    44    1
   159    95    94    1
   160   160   159    1
   161   160   163    1
   162   156   158   ar
   163    44    43    1
   164    91    92    1
   165   157   158   ar
   166   165   164    2
   167   163   164    1
   168   164   166   am
