@<TRIPOS>MOLECULE
tmp/1tz6A01.pdb
 134 120 0 0 0
SMALL
GASTEIGER

@<TRIPOS>ATOM
      1  N         11.7450  -17.6800   -7.6410 N.3     8  ASP8       -0.1239
      2  CA        12.1530  -17.9470   -9.0150 C.3     8  ASP8        0.1674
      3  C         13.1330  -19.1130   -9.2410 C.2     8  ASP8        0.2266
      4  O         14.0780  -19.3230   -8.4740 O.2     8  ASP8       -0.2867
      5  CB        12.7790  -16.6750   -9.5710 C.3     8  ASP8        0.1410
      6  CG        14.0080  -16.2600   -8.7840 C.2     8  ASP8        0.3668
      7  OD1       13.9840  -16.4290   -7.5470 O.co2   8  ASP8       -0.2456
      8  OD2       14.9910  -15.7650   -9.3790 O.co2   8  ASP8       -0.2456
      9  N         15.2180  -20.5210  -12.5880 N.3    10  SER10      -0.1217
     10  CA        15.4470  -20.2270  -13.9840 C.3    10  SER10       0.1889
     11  C         16.6420  -20.9240  -14.5820 C.2    10  SER10       0.2288
     12  O         17.4050  -21.5720  -13.8950 O.2    10  SER10      -0.2866
     13  CB        15.6280  -18.7260  -14.1570 C.3    10  SER10       0.2089
     14  OG        16.8260  -18.3060  -13.5310 O.3    10  SER10      -0.2183
     15  N         20.0440  -20.2580  -16.2680 N.3    12  ASP12      -0.1239
     16  CA        20.9970  -19.1890  -16.4680 C.3    12  ASP12       0.1674
     17  C         21.8940  -19.6370  -17.6220 C.2    12  ASP12       0.2266
     18  O         22.4420  -20.7480  -17.6090 O.2    12  ASP12      -0.2867
     19  CB        21.8280  -18.9510  -15.2030 C.3    12  ASP12       0.1410
     20  CG        20.9760  -18.5800  -13.9990 C.2    12  ASP12       0.3668
     21  OD1       19.9380  -17.9060  -14.1820 O.co2  12  ASP12      -0.2456
     22  OD2       21.3500  -18.9480  -12.8630 O.co2  12  ASP12      -0.2456
     23  N         18.1870  -19.0800  -10.7830 N.3    27  GLY27      -0.1210
     24  CA        17.1270  -18.5660   -9.9380 C.3    27  GLY27       0.1956
     25  C         17.6180  -18.4420   -8.5090 C.2    27  GLY27       0.2611
     26  O         18.2100  -19.3830   -7.9740 O.2    27  GLY27      -0.2717
     27  N         17.3690  -17.2930   -7.8830 N.am   28  ALA28      -0.1979
     28  CA        17.8260  -17.0620   -6.5160 C.3    28  ALA28       0.1597
     29  C         17.1880  -18.0110   -5.5080 C.2    28  ALA28       0.2287
     30  O         17.8880  -18.5950   -4.6660 O.2    28  ALA28      -0.2864
     31  CB        17.5660  -15.6220   -6.1110 C.3    28  ALA28       0.0319
     32  N         18.5890  -21.5710   -6.1620 N.3    31  ASN31      -0.1240
     33  CA        19.9310  -21.8010   -5.6360 C.3    31  ASN31       0.1653
     34  C         19.9080  -22.0450   -4.1480 C.2    31  ASN31       0.2266
     35  O         20.4620  -23.0330   -3.6730 O.2    31  ASN31      -0.2867
     36  CB        20.8480  -20.6130   -5.9230 C.3    31  ASN31       0.1155
     37  CG        21.0360  -20.3840   -7.3950 C.2    31  ASN31       0.2627
     38  OD1       21.0440  -21.3370   -8.1820 O.2    31  ASN31      -0.2716
     39  ND2       21.2010  -19.1220   -7.7860 N.am   31  ASN31      -0.0877
     40  N         11.4180  -18.9450  -16.7880 N.3    81  ALA81      -0.1245
     41  CA        12.4230  -17.9070  -16.9790 C.3    81  ALA81       0.1562
     42  C         13.7790  -18.4000  -17.4970 C.2    81  ALA81       0.2260
     43  O         14.3740  -19.3450  -16.9510 O.2    81  ALA81      -0.2867
     44  CB        12.6280  -17.1530  -15.6740 C.3    81  ALA81       0.0290
     45  N         17.5660  -16.7180  -18.8650 N.3    83  LEU83      -0.1245
     46  CA        18.3170  -15.4680  -18.8850 C.3    83  LEU83       0.1561
     47  C         19.7580  -15.7040  -19.2710 C.2    83  LEU83       0.2260
     48  O         20.2120  -16.8450  -19.3400 O.2    83  LEU83      -0.2867
     49  CB        18.2450  -14.7790  -17.5220 C.3    83  LEU83       0.0270
     50  CG        18.8560  -15.4730  -16.3040 C.3    83  LEU83       0.0019
     51  CD1       20.3320  -15.1720  -16.2190 C.3    83  LEU83       0.0001
     52  CD2       18.1580  -14.9730  -15.0500 C.3    83  LEU83       0.0001
     53  N         22.6530   -8.9620  -16.3260 N.3    88  PHE88      -0.1241
     54  CA        21.6280   -9.9620  -16.5950 C.3    88  PHE88       0.1605
     55  C         20.6600   -9.5780  -17.6990 C.2    88  PHE88       0.2264
     56  O         19.9850   -8.5530  -17.6170 O.2    88  PHE88      -0.2867
     57  CB        20.8380  -10.2860  -15.3290 C.3    88  PHE88       0.0534
     58  CG        21.5920  -11.1270  -14.3500 C.ar   88  PHE88      -0.0203
     59  CD1       22.1620  -12.3410  -14.7550 C.ar   88  PHE88      -0.0042
     60  CD2       21.7190  -10.7280  -13.0210 C.ar   88  PHE88      -0.0042
     61  CE1       22.8510  -13.1510  -13.8460 C.ar   88  PHE88      -0.0003
     62  CE2       22.3980  -11.5190  -12.0990 C.ar   88  PHE88      -0.0003
     63  CZ        22.9700  -12.7370  -12.5060 C.ar   88  PHE88      -0.0000
     64  N         17.3150  -10.4340  -19.3210 N.3    90  TYR90      -0.1241
     65  CA        16.1060  -11.2000  -19.0090 C.3    90  TYR90       0.1605
     66  C         15.2950  -11.5260  -20.2420 C.2    90  TYR90       0.2264
     67  O         14.4520  -10.7470  -20.6660 O.2    90  TYR90      -0.2867
     68  CB        15.2230  -10.4420  -18.0230 C.3    90  TYR90       0.0534
     69  CG        15.9040  -10.1810  -16.7100 C.ar   90  TYR90      -0.0201
     70  CD1       16.0480  -11.1900  -15.7710 C.ar   90  TYR90      -0.0009
     71  CD2       16.4700   -8.9430  -16.4390 C.ar   90  TYR90      -0.0009
     72  CE1       16.7400  -10.9750  -14.6070 C.ar   90  TYR90       0.0417
     73  CE2       17.1650   -8.7170  -15.2780 C.ar   90  TYR90       0.0417
     74  CZ        17.3010   -9.7360  -14.3620 C.ar   90  TYR90       0.1957
     75  OH        18.0160   -9.5160  -13.2090 O.3    90  TYR90      -0.2866
     76  N         12.9310  -10.2320   -5.4140 N.3   119  ILE119     -0.1245
     77  CA        12.7220  -10.7520   -6.7520 C.3   119  ILE119      0.1561
     78  C         11.3170  -11.3330   -6.8890 C.2   119  ILE119      0.2260
     79  O         10.6880  -11.2250   -7.9450 O.2   119  ILE119     -0.2867
     80  CB        13.7750  -11.8280   -7.0780 C.3   119  ILE119      0.0252
     81  CG1       15.1100  -11.1550   -7.4010 C.3   119  ILE119      0.0019
     82  CG2       13.3140  -12.6870   -8.2330 C.3   119  ILE119      0.0019
     83  CD1       16.3120  -12.0620   -7.2800 C.3   119  ILE119      0.0001
     84  N         17.0620   -8.9140   -2.4540 N.3   149  ASN149     -0.1240
     85  CA        17.9590   -9.2440   -3.5550 C.3   149  ASN149      0.1653
     86  C         17.5580   -8.3180   -4.6960 C.2   149  ASN149      0.2266
     87  O         16.9870   -8.7490   -5.6990 O.2   149  ASN149     -0.2867
     88  CB        17.7760  -10.7100   -3.9710 C.3   149  ASN149      0.1155
     89  CG        19.0170  -11.2920   -4.6270 C.2   149  ASN149      0.2627
     90  OD1       19.6440  -10.6570   -5.4800 O.2   149  ASN149     -0.2716
     91  ND2       19.3740  -12.5110   -4.2360 N.am  149  ASN149     -0.0877
     92  N         16.9820   -6.0370   -7.8520 N.3   151  ARG151     -0.1245
     93  CA        17.1810   -6.1490   -9.3020 C.3   151  ARG151      0.1563
     94  C         16.2450   -5.1010   -9.9280 C.2   151  ARG151      0.2260
     95  O         15.3390   -5.4340  -10.6970 O.2   151  ARG151     -0.2867
     96  CB        16.7900   -7.5490   -9.8120 C.3   151  ARG151      0.0307
     97  CG        17.5630   -8.7030   -9.1990 C.3   151  ARG151      0.0489
     98  CD        19.0220   -8.7010   -9.6340 C.3   151  ARG151      0.2205
     99  NE        19.8950   -9.4400   -8.7200 N.pl3 151  ARG151     -0.0865
    100  CZ        19.7940  -10.7400   -8.4670 C.cat 151  ARG151      0.5346
    101  NH1       18.8510  -11.4530   -9.0610 N.pl3 151  ARG151      0.1354
    102  NH2       20.6360  -11.3320   -7.6300 N.pl3 151  ARG151      0.1354
    103  N         14.1350   -5.2120  -13.3950 N.3   154  MET154     -0.1245
    104  CA        13.0020   -6.0890  -13.6200 C.3   154  MET154      0.1570
    105  C         11.6430   -5.5260  -13.2300 C.2   154  MET154      0.2261
    106  O         10.6150   -6.1510  -13.5010 O.2   154  MET154     -0.2867
    107  CB        13.2210   -7.3890  -12.8600 C.3   154  MET154      0.0387
    108  CG        14.4850   -8.1400  -13.2410 C.3   154  MET154      0.0595
    109  SD        14.6900   -9.6050  -12.2200 S.3   154  MET154     -0.1393
    110  CE        13.1930  -10.4790  -12.6060 C.3   154  MET154      0.0692
    111  N         28.5020  -15.2430   -9.4530 N.3   237  THR237     -0.1203
    112  CA        27.1040  -15.6360   -9.6150 C.3   237  THR237      0.1994
    113  C         26.6940  -16.7180   -8.6120 C.2   237  THR237      0.2618
    114  O         27.0960  -17.8850   -8.7080 O.2   237  THR237     -0.2717
    115  CB        26.8220  -16.1730  -11.0470 C.3   237  THR237      0.1784
    116  OG1       27.1650  -15.1720  -12.0110 O.3   237  THR237     -0.2211
    117  CG2       25.3420  -16.5370  -11.2130 C.3   237  THR237      0.0376
    118  N         25.9110  -16.3110   -7.6270 N.am  238  GLY238     -0.1956
    119  CA        25.4370  -17.2560   -6.6440 C.3   238  GLY238      0.1869
    120  C         25.9570  -17.1010   -5.2290 C.2   238  GLY238      0.2309
    121  O         25.3740  -17.6720   -4.3050 O.2   238  GLY238     -0.2863
    122  N         23.2850  -16.1270   -2.7160 N.3   241  ASP241     -0.1239
    123  CA        22.2990  -17.1760   -2.4980 C.3   241  ASP241      0.1674
    124  C         22.8930  -18.3510   -1.7310 C.2   241  ASP241      0.2266
    125  O         22.2140  -18.9570   -0.9060 O.2   241  ASP241     -0.2867
    126  CB        21.6980  -17.6490   -3.8280 C.3   241  ASP241      0.1410
    127  CG        20.9310  -16.5460   -4.5530 C.2   241  ASP241      0.3668
    128  OD1       20.2540  -15.7460   -3.8700 O.co2 241  ASP241     -0.2456
    129  OD2       20.9900  -16.4840   -5.8040 O.co2 241  ASP241     -0.2456
    130  N         25.4520  -20.6860  -10.8740 N.3   282  ALA282     -0.1245
    131  CA        24.9750  -20.3490   -9.5410 C.3   282  ALA282      0.1562
    132  C         25.0300  -21.5000   -8.5170 C.2   282  ALA282      0.2260
    133  O         25.3930  -21.2890   -7.3600 O.2   282  ALA282     -0.2867
    134  CB        23.5670  -19.8050   -9.6420 C.3   282  ALA282      0.0290
@<TRIPOS>BOND
     1    67    66    2
     2    66    65    1
     3    48    47    2
     4    64    65    1
     5    47    46    1
     6    65    68    1
     7    46    45    1
     8    46    49    1
     9    68    69    1
    10    55    56    2
    11    55    54    1
    12    17    18    2
    13    17    16    1
    14    49    50    1
    15    42    41    1
    16    42    43    2
    17    41    40    1
    18    41    44    1
    19    69    71   ar
    20    69    70   ar
    21    54    53    1
    22    54    57    1
    23    16    15    1
    24    16    19    1
    25    71    73   ar
    26    50    51    1
    27    50    52    1
    28    70    72   ar
    29    57    58    1
    30    73    74   ar
    31    19    20    1
    32    59    58   ar
    33    59    61   ar
    34    72    74   ar
    35    11    10    1
    36    11    12    2
    37    74    75    1
    38    58    60   ar
    39    21    20   ar
    40    13    10    1
    41    13    14    1
    42    20    22   ar
    43    10     9    1
    44    61    63   ar
    45   104   103    1
    46   104   105    1
    47   104   107    1
    48   106   105    2
    49   108   107    1
    50   108   109    1
    51    60    62   ar
    52   110   109    1
    53    63    62   ar
    54   116   115    1
    55   117   115    1
    56   115   112    1
    57   130   131    1
    58    23    24    1
    59    95    94    2
    60    24    25    1
    61    94    93    1
    62    96    93    1
    63    96    97    1
    64   134   131    1
    65    98    97    1
    66    98    99    1
    67   112   111    1
    68   112   113    1
    69     5     2    1
    70     5     6    1
    71   131   132    1
    72     8     6   ar
    73    93    92    1
    74     3     2    1
    75     3     4    2
    76   101   100    1
    77     2     1    1
    78     6     7   ar
    79    99   100    2
    80   114   113    2
    81   113   118   am
    82   132   133    2
    83    25    26    2
    84    25    27   am
    85   100   102    1
    86    82    80    1
    87    38    37    2
    88    79    78    2
    89    27    28    1
    90    39    37   am
    91   118   119    1
    92    81    83    1
    93    81    80    1
    94    37    36    1
    95    80    77    1
    96    78    77    1
    97    77    76    1
    98   119   120    1
    99    28    31    1
   100    28    29    1
   101    32    33    1
   102    36    33    1
   103   129   127   ar
   104    87    86    2
   105    33    34    1
   106    29    30    2
   107    90    89    2
   108   120   121    2
   109    86    85    1
   110    89    91   am
   111    89    88    1
   112   127   128   ar
   113   127   126    1
   114    34    35    2
   115    88    85    1
   116   126   123    1
   117    85    84    1
   118   122   123    1
   119   123   124    1
   120   124   125    2
