@<TRIPOS>MOLECULE
tmp/1tzdB00.pdb
 139 129 0 0 0
SMALL
GASTEIGER

@<TRIPOS>ATOM
      1  N          8.8390   56.0370  -13.0590 N.3     3  ILE3       -0.1245
      2  CA        10.0670   55.4950  -13.6290 C.3     3  ILE3        0.1561
      3  C         11.0620   56.6070  -13.9510 C.2     3  ILE3        0.2260
      4  O         10.6920   57.7780  -14.0530 O.2     3  ILE3       -0.2867
      5  CB         9.7710   54.6600  -14.9040 C.3     3  ILE3        0.0252
      6  CG1        9.0320   53.3740  -14.5080 C.3     3  ILE3        0.0019
      7  CG2       11.0700   54.3100  -15.6320 C.3     3  ILE3        0.0019
      8  CD1        8.7090   52.4530  -15.6630 C.3     3  ILE3        0.0001
      9  N         14.2830   57.9290  -16.5060 N.3     5  LYS5       -0.1231
     10  CA        14.9850   57.8090  -17.7760 C.3     5  LYS5        0.1693
     11  C         16.0680   58.8750  -17.6860 C.2     5  LYS5        0.2591
     12  O         15.8930   59.8860  -17.0060 O.2     5  LYS5       -0.2718
     13  CB        14.0520   58.1080  -18.9530 C.3     5  LYS5        0.0285
     14  CG        14.5330   57.5590  -20.2910 C.3     5  LYS5        0.0035
     15  CD        13.8440   58.2540  -21.4580 C.3     5  LYS5        0.0206
     16  CE        14.1110   57.5650  -22.7940 C.3     5  LYS5        0.1093
     17  NZ        13.1980   56.4130  -23.0300 N.3     5  LYS5       -0.1314
     18  N         17.1850   58.4210  -18.1590 N.am    6  ARG6       -0.1980
     19  CA        18.3790   59.1840  -18.0470 C.3     6  ARG6        0.1597
     20  C         18.5390   59.8800  -19.3430 C.2     6  ARG6        0.2287
     21  O         18.2660   59.3070  -20.4020 O.2     6  ARG6       -0.2864
     22  CB        19.5840   58.3170  -17.7130 C.3     6  ARG6        0.0334
     23  CG        19.2050   56.9380  -17.2210 C.3     6  ARG6        0.0492
     24  CD        18.7950   56.0430  -18.3860 C.3     6  ARG6        0.2205
     25  NE        17.9430   54.9160  -17.9880 N.pl3   6  ARG6       -0.0865
     26  CZ        17.3960   54.0480  -18.8360 C.cat   6  ARG6        0.5346
     27  NH1       17.6100   54.1740  -20.1350 N.pl3   6  ARG6        0.1354
     28  NH2       16.6290   53.0550  -18.3900 N.pl3   6  ARG6        0.1354
     29  N          3.9980   60.5520  -21.6740 N.3    26  PRO26      -0.2116
     30  CA         4.2470   60.4680  -20.2300 C.3    26  PRO26       0.1372
     31  C          4.4040   61.8360  -19.5890 C.2    26  PRO26       0.2244
     32  O          5.1230   62.6890  -20.1140 O.2    26  PRO26      -0.2868
     33  CB         5.5590   59.6750  -20.1450 C.3    26  PRO26       0.0268
     34  CG         5.5190   58.8150  -21.3420 C.3    26  PRO26       0.0207
     35  CD         4.9940   59.7530  -22.4130 C.3    26  PRO26       0.0892
     36  N          9.6880   60.6530  -15.0930 N.3    35  LEU35      -0.1231
     37  CA         8.5420   60.4230  -15.9470 C.3    35  LEU35       0.1693
     38  C          7.4750   59.5980  -15.2610 C.2    35  LEU35       0.2592
     39  O          7.7780   58.7040  -14.4680 O.2    35  LEU35      -0.2718
     40  CB         8.9760   59.7050  -17.2240 C.3    35  LEU35       0.0284
     41  CG         9.9730   60.3610  -18.1840 C.3    35  LEU35       0.0019
     42  CD1       10.2830   59.3770  -19.3030 C.3    35  LEU35       0.0001
     43  CD2        9.4050   61.6530  -18.7530 C.3    35  LEU35       0.0001
     44  N          6.2190   59.9010  -15.5690 N.am   36  GLN36      -0.1966
     45  CA         5.1050   59.1520  -15.0140 C.3    36  GLN36       0.1733
     46  C          5.3530   57.6940  -15.3950 C.2    36  GLN36       0.2616
     47  O          5.9850   57.4240  -16.4150 O.2    36  GLN36      -0.2715
     48  CB         3.7920   59.6560  -15.6290 C.3    36  GLN36       0.0408
     49  CG         2.7900   58.5600  -16.0160 C.3    36  GLN36       0.0908
     50  CD         1.5690   59.1130  -16.7460 C.2    36  GLN36       0.2608
     51  OE1        1.6960   59.8650  -17.7050 O.2    36  GLN36      -0.2717
     52  NE2        0.3890   58.7310  -16.2960 N.am   36  GLN36      -0.0878
     53  N          4.8880   56.7560  -14.5730 N.am   37  ASP37      -0.1957
     54  CA         5.0610   55.3380  -14.8780 C.3    37  ASP37       0.1840
     55  C          3.7710   54.9010  -15.5420 C.2    37  ASP37       0.2622
     56  O          2.7600   54.7150  -14.8740 O.2    37  ASP37      -0.2715
     57  CB         5.2750   54.5230  -13.6080 C.3    37  ASP37       0.1450
     58  CG         5.6740   53.0920  -13.9040 C.2    37  ASP37       0.3671
     59  OD1        5.1070   52.4950  -14.8440 O.co2  37  ASP37      -0.2456
     60  OD2        6.5490   52.5610  -13.1920 O.co2  37  ASP37      -0.2456
     61  N          3.8110   54.7320  -16.8550 N.am   38  LEU38      -0.1963
     62  CA         2.6240   54.3780  -17.6180 C.3    38  LEU38       0.1728
     63  C          1.9520   53.0750  -17.2240 C.2    38  LEU38       0.2616
     64  O          0.8080   52.8240  -17.6040 O.2    38  LEU38      -0.2715
     65  CB         2.9600   54.3600  -19.1150 C.3    38  LEU38       0.0311
     66  CG         3.5850   55.6580  -19.6450 C.3    38  LEU38       0.0022
     67  CD1        3.9870   55.4880  -21.1120 C.3    38  LEU38       0.0001
     68  CD2        2.5810   56.8060  -19.4890 C.3    38  LEU38       0.0001
     69  N          2.6480   52.2430  -16.4590 N.am   39  LEU39      -0.1977
     70  CA         2.0800   50.9670  -16.0460 C.3    39  LEU39       0.1596
     71  C          1.3420   51.0810  -14.7170 C.2    39  LEU39       0.2287
     72  O          0.5330   50.2130  -14.3610 O.2    39  LEU39      -0.2864
     73  CB         3.1900   49.9140  -15.9720 C.3    39  LEU39       0.0297
     74  CG         3.8890   49.7210  -17.3260 C.3    39  LEU39       0.0022
     75  CD1        5.0010   48.6860  -17.2130 C.3    39  LEU39       0.0001
     76  CD2        2.8630   49.2850  -18.3530 C.3    39  LEU39       0.0001
     77  N          1.6440   44.5250  -22.4880 N.3    47  VAL47      -0.1245
     78  CA         2.1860   45.6750  -23.1900 C.3    47  VAL47       0.1561
     79  C          2.6900   45.3030  -24.5670 C.2    47  VAL47       0.2260
     80  O          3.0380   44.1500  -24.8170 O.2    47  VAL47      -0.2867
     81  CB         3.3510   46.3000  -22.3900 C.3    47  VAL47       0.0252
     82  CG1        3.9020   47.5130  -23.1090 C.3    47  VAL47       0.0019
     83  CG2        2.8740   46.6800  -21.0020 C.3    47  VAL47       0.0019
     84  N          5.0850   47.3570  -27.6310 N.3    49  ASP49      -0.1239
     85  CA         5.8310   48.5200  -28.0890 C.3    49  ASP49       0.1674
     86  C          5.8680   48.5290  -29.6120 C.2    49  ASP49       0.2266
     87  O          6.3400   47.5780  -30.2450 O.2    49  ASP49      -0.2867
     88  CB         7.2590   48.4890  -27.5390 C.3    49  ASP49       0.1410
     89  CG         8.0810   49.6820  -27.9860 C.2    49  ASP49       0.3668
     90  OD1        8.0790   49.9810  -29.2010 O.co2  49  ASP49      -0.2456
     91  OD2        8.7340   50.3150  -27.1300 O.co2  49  ASP49      -0.2456
     92  N          7.2120   50.5840  -32.9280 N.3    51  LYS51      -0.1245
     93  CA         8.1040   51.5650  -33.5650 C.3    51  LYS51       0.1561
     94  C          7.4310   52.2830  -34.7240 C.2    51  LYS51       0.2260
     95  O          7.0670   51.6540  -35.7030 O.2    51  LYS51      -0.2867
     96  CB         9.3610   50.8650  -34.1130 C.3    51  LYS51       0.0271
     97  CG        10.6120   51.0930  -33.3120 C.3    51  LYS51       0.0035
     98  CD        11.3190   52.3730  -33.7140 C.3    51  LYS51       0.0206
     99  CE        12.4540   52.6610  -32.7400 C.3    51  LYS51       0.1093
    100  NZ        13.2880   51.4600  -32.4890 N.3    51  LYS51      -0.1314
    101  N          4.8310   42.1570  -23.9510 N.3   113  LYS113     -0.1245
    102  CA         4.9190   41.5650  -22.6230 C.3   113  LYS113      0.1561
    103  C          3.5020   41.1150  -22.3020 C.2   113  LYS113      0.2260
    104  O          2.5710   41.9260  -22.3170 O.2   113  LYS113     -0.2867
    105  CB         5.4030   42.5940  -21.6040 C.3   113  LYS113      0.0271
    106  CG         5.6820   42.0010  -20.2340 C.3   113  LYS113      0.0035
    107  CD         6.4720   42.9650  -19.3530 C.3   113  LYS113      0.0206
    108  CE         7.8890   43.1740  -19.8800 C.3   113  LYS113      0.1093
    109  NZ         8.6890   44.0850  -19.0120 N.3   113  LYS113     -0.1314
    110  N          7.9820   55.5110  -30.3140 N.3   175  SER175     -0.1217
    111  CA         7.0570   54.4060  -30.4560 C.3   175  SER175      0.1889
    112  C          5.7460   54.7310  -29.7630 C.2   175  SER175      0.2288
    113  O          5.6590   55.6970  -29.0070 O.2   175  SER175     -0.2866
    114  CB         7.6590   53.1250  -29.8600 C.3   175  SER175      0.2089
    115  OG         7.6850   53.1870  -28.4460 O.3   175  SER175     -0.2183
    116  N          3.2270   53.1520  -27.2180 N.3   177  LEU177     -0.1245
    117  CA         3.2120   52.0880  -26.2220 C.3   177  LEU177      0.1561
    118  C          1.7810   51.7210  -25.8700 C.2   177  LEU177      0.2260
    119  O          1.0560   52.5280  -25.2790 O.2   177  LEU177     -0.2867
    120  CB         3.9750   52.5550  -24.9690 C.3   177  LEU177      0.0270
    121  CG         4.2650   51.5490  -23.8520 C.3   177  LEU177      0.0019
    122  CD1        5.0360   50.3540  -24.4280 C.3   177  LEU177      0.0001
    123  CD2        5.0640   52.2300  -22.7460 C.3   177  LEU177      0.0001
    124  N          6.1590   57.4850  -26.8260 N.3   191  ILE191     -0.1231
    125  CA         7.3290   57.4930  -25.9600 C.3   191  ILE191      0.1692
    126  C          8.6200   57.4170  -26.7750 C.2   191  ILE191      0.2592
    127  O          8.6110   57.1110  -27.9730 O.2   191  ILE191     -0.2718
    128  CB         7.3050   56.3100  -24.9560 C.3   191  ILE191      0.0266
    129  CG1        8.5410   56.3630  -24.0430 C.3   191  ILE191      0.0019
    130  CG2        7.3140   54.9820  -25.7050 C.3   191  ILE191      0.0020
    131  CD1        8.7840   57.7120  -23.3530 C.3   191  ILE191      0.0001
    132  N          9.7230   57.7060  -26.1030 N.am  192  ASP192     -0.1974
    133  CA        11.0410   57.6490  -26.7010 C.3   192  ASP192      0.1709
    134  C         11.2380   58.6530  -27.7520 C.2   192  ASP192      0.2293
    135  O         11.2170   58.3880  -28.9400 O.2   192  ASP192     -0.2864
    136  CB        11.2850   56.2610  -27.3000 C.3   192  ASP192      0.1436
    137  CG        12.7110   56.0700  -27.7650 C.2   192  ASP192      0.3671
    138  OD1       13.0610   54.9200  -28.1220 O.co2 192  ASP192     -0.2456
    139  OD2       13.4790   57.0590  -27.7700 O.co2 192  ASP192     -0.2456
@<TRIPOS>BOND
     1    95    94    2
     2    94    93    1
     3    96    93    1
     4    96    97    1
     5    98    97    1
     6    98    99    1
     7    93    92    1
     8    99   100    1
     9   111   110    1
    10   111   114    1
    11   111   112    1
    12    87    86    2
    13   114   115    1
    14   112   113    2
    15    86    85    1
    16    90    89   ar
    17   135   134    2
    18   138   137   ar
    19    85    84    1
    20    85    88    1
    21    89    88    1
    22    89    91   ar
    23   127   126    2
    24   139   137   ar
    25   137   136    1
    26   134   133    1
    27   136   133    1
    28   116   117    1
    29   124   125    1
    30   126   132   am
    31   126   125    1
    32   133   132    1
    33   117   118    1
    34   117   120    1
    35   125   128    1
    36   118   119    2
    37   130   128    1
    38   120   121    1
    39   128   129    1
    40    80    79    2
    41    79    78    1
    42   122   121    1
    43   129   131    1
    44   101   102    1
    45   121   123    1
    46    78    77    1
    47    78    81    1
    48    82    81    1
    49    17    16    1
    50    16    15    1
    51   102   103    1
    52   102   105    1
    53    35    29    1
    54    35    34    1
    55    81    83    1
    56   104   103    2
    57    29    30    1
    58   105   106    1
    59    15    14    1
    60    34    33    1
    61    67    66    1
    62    21    20    2
    63    14    13    1
    64   106   107    1
    65    30    33    1
    66    30    31    1
    67    27    26    1
    68    32    31    2
    69   108   107    1
    70   108   109    1
    71    66    68    1
    72    66    65    1
    73    20    19    1
    74    42    41    1
    75    65    62    1
    76    13    10    1
    77    26    28    1
    78    26    25    2
    79    43    41    1
    80    24    25    1
    81    24    23    1
    82    76    74    1
    83    41    40    1
    84    18    19    1
    85    18    11   am
    86    19    22    1
    87    10    11    1
    88    10     9    1
    89    22    23    1
    90    51    50    2
    91    11    12    2
    92    62    63    1
    93    62    61    1
    94    64    63    2
    95    74    75    1
    96    74    73    1
    97    40    37    1
    98    63    69   am
    99    61    55   am
   100    50    52   am
   101    50    49    1
   102    69    70    1
   103    47    46    2
   104    70    73    1
   105    70    71    1
   106    49    48    1
   107    37    38    1
   108    37    36    1
   109     8     6    1
   110     7     5    1
   111    48    45    1
   112    44    38   am
   113    44    45    1
   114    55    54    1
   115    55    56    2
   116    46    45    1
   117    46    53   am
   118    38    39    2
   119     5     6    1
   120     5     2    1
   121    54    53    1
   122    54    57    1
   123    59    58   ar
   124    71    72    2
   125     4     3    2
   126     3     2    1
   127    58    57    1
   128    58    60   ar
   129     2     1    1
