@<TRIPOS>MOLECULE
tmp/1tzeA00.pdb
 141 135 0 0 0
SMALL
GASTEIGER

@<TRIPOS>ATOM
      1  N         53.4150   52.9890   52.2920 N.3    13  ARG13      -0.1245
      2  CA        52.4800   52.0210   51.7090 C.3    13  ARG13       0.1563
      3  C         53.2620   51.1070   50.7640 C.2    13  ARG13       0.2260
      4  O         53.1210   49.8860   50.8030 O.2    13  ARG13      -0.2867
      5  CB        51.3480   52.7450   50.9620 C.3    13  ARG13       0.0307
      6  CG        50.5040   51.8440   50.0730 C.3    13  ARG13       0.0489
      7  CD        49.6440   52.6070   49.0590 C.3    13  ARG13       0.2205
      8  NE        48.3550   52.9510   49.6250 N.pl3  13  ARG13      -0.0865
      9  CZ        47.1910   52.4240   49.2590 C.cat  13  ARG13       0.5346
     10  NH1       47.1110   51.5270   48.2950 N.pl3  13  ARG13       0.1354
     11  NH2       46.1100   52.7140   49.9580 N.pl3  13  ARG13       0.1354
     12  N         53.9370   47.0370   50.6850 N.3    17  GLU17      -0.1245
     13  CA        53.6310   46.2610   49.4710 C.3    17  GLU17       0.1567
     14  C         54.8020   45.3880   49.0890 C.2    17  GLU17       0.2260
     15  O         54.6550   44.2010   48.7980 O.2    17  GLU17      -0.2867
     16  CB        53.2710   47.1860   48.3010 C.3    17  GLU17       0.0388
     17  CG        51.8020   47.5740   48.2910 C.3    17  GLU17       0.1160
     18  CD        51.4220   48.5200   47.1570 C.2    17  GLU17       0.3649
     19  OE1       52.3040   48.9480   46.3790 O.co2  17  GLU17      -0.2457
     20  OE2       50.2270   48.8510   47.0530 O.co2  17  GLU17      -0.2457
     21  N         50.2120   49.2980   60.0240 N.3    32  ARG32      -0.1245
     22  CA        51.1460   50.4060   59.8990 C.3    32  ARG32       0.1563
     23  C         50.4150   51.6820   60.2200 C.2    32  ARG32       0.2260
     24  O         49.1960   51.7050   60.2730 O.2    32  ARG32      -0.2867
     25  CB        51.7400   50.4790   58.4780 C.3    32  ARG32       0.0307
     26  CG        50.7040   50.5680   57.3520 C.3    32  ARG32       0.0489
     27  CD        51.3070   50.3280   55.9670 C.3    32  ARG32       0.2205
     28  NE        50.2320   50.2490   54.9820 N.pl3  32  ARG32      -0.0865
     29  CZ        49.6310   51.3110   54.4690 C.cat  32  ARG32       0.5346
     30  NH1       50.0260   52.5170   54.8290 N.pl3  32  ARG32       0.1354
     31  NH2       48.5700   51.1710   53.6860 N.pl3  32  ARG32       0.1354
     32  N         49.3540   55.1760   59.0150 N.3    34  SER34      -0.1202
     33  CA        49.1440   55.8580   57.7610 C.3    34  SER34       0.2020
     34  C         49.9510   57.1300   57.6430 C.2    34  SER34       0.2619
     35  O         50.0090   57.9310   58.5790 O.2    34  SER34      -0.2717
     36  CB        47.6590   56.1590   57.5940 C.3    34  SER34       0.2103
     37  OG        47.3810   56.8040   56.3640 O.3    34  SER34      -0.2182
     38  N         50.6590   57.2620   56.5260 N.am   35  GLU35      -0.1965
     39  CA        51.4170   58.4740   56.2340 C.3    35  GLU35       0.1733
     40  C         50.5040   59.4700   55.5100 C.2    35  GLU35       0.2617
     41  O         50.7500   60.6790   55.5410 O.2    35  GLU35      -0.2715
     42  CB        52.6590   58.1840   55.4040 C.3    35  GLU35       0.0429
     43  CG        53.7580   57.5020   56.1980 C.3    35  GLU35       0.1163
     44  CD        55.0650   57.4190   55.4300 C.2    35  GLU35       0.3649
     45  OE1       55.0130   57.3810   54.1800 O.co2  35  GLU35      -0.2457
     46  OE2       56.1460   57.3840   56.0700 O.co2  35  GLU35      -0.2457
     47  N         49.4190   58.9710   54.9180 N.am   36  SER36      -0.1950
     48  CA        48.4750   59.8380   54.2210 C.3    36  SER36       0.1924
     49  C         47.4910   60.5230   55.1800 C.2    36  SER36       0.2314
     50  O         47.0570   61.6490   54.9380 O.2    36  SER36      -0.2863
     51  CB        47.7270   59.0680   53.1190 C.3    36  SER36       0.2116
     52  OG        46.7770   58.1490   53.6260 O.3    36  SER36      -0.2180
     53  N         46.4850   51.4370   59.1270 N.3    42  SER42      -0.1217
     54  CA        46.1890   50.7220   57.8890 C.3    42  SER42       0.1889
     55  C         46.6270   49.2900   58.0080 C.2    42  SER42       0.2288
     56  O         47.6760   48.9820   58.5810 O.2    42  SER42      -0.2866
     57  CB        46.9030   51.3620   56.7060 C.3    42  SER42       0.2089
     58  OG        46.3580   52.6380   56.4660 O.3    42  SER42      -0.2183
     59  N         46.5140   43.9350   49.3170 N.3    52  GLN52      -0.1231
     60  CA        45.4270   44.8830   49.5050 C.3    52  GLN52       0.1698
     61  C         45.6020   45.6930   50.7860 C.2    52  GLN52       0.2592
     62  O         46.2550   45.2390   51.7270 O.2    52  GLN52      -0.2718
     63  CB        44.1220   44.1270   49.5200 C.3    52  GLN52       0.0381
     64  CG        43.9330   43.3590   48.2330 C.3    52  GLN52       0.0905
     65  CD        42.7660   42.4230   48.2620 C.2    52  GLN52       0.2608
     66  OE1       41.7780   42.6560   48.9760 O.2    52  GLN52      -0.2717
     67  NE2       42.8500   41.3530   47.4690 N.am   52  GLN52      -0.0878
     68  N         45.0380   46.8960   50.8150 N.am   53  HIS53      -0.1962
     69  CA        45.1450   47.7890   51.9760 C.3    53  HIS53       0.1787
     70  C         43.7600   48.1300   52.4910 C.2    53  HIS53       0.2620
     71  O         42.8510   48.3920   51.6910 O.2    53  HIS53      -0.2715
     72  CB        45.8770   49.0860   51.6040 C.3    53  HIS53       0.0785
     73  CG        47.1790   48.8660   50.8920 C.ar   53  HIS53       0.0821
     74  ND1       48.3810   48.7250   51.5550 N.ar   53  HIS53      -0.2267
     75  CD2       47.4570   48.7180   49.5730 C.ar   53  HIS53       0.1154
     76  CE1       49.3410   48.4940   50.6760 C.ar   53  HIS53       0.1986
     77  NE2       48.8040   48.4810   49.4670 N.ar   53  HIS53      -0.2212
     78  N         43.5880   48.0770   53.8120 N.am   54  PHE54      -0.1960
     79  CA        42.3160   48.3740   54.4710 C.3    54  PHE54       0.1771
     80  C         42.5750   49.4810   55.4570 C.2    54  PHE54       0.2619
     81  O         43.6350   49.5240   56.0760 O.2    54  PHE54      -0.2715
     82  CB        41.8020   47.1590   55.2350 C.3    54  PHE54       0.0574
     83  CG        41.3680   46.0340   54.3550 C.ar   54  PHE54      -0.0200
     84  CD1       42.3070   45.1850   53.7670 C.ar   54  PHE54      -0.0042
     85  CD2       40.0330   45.8460   54.0610 C.ar   54  PHE54      -0.0042
     86  CE1       41.9310   44.1650   52.8860 C.ar   54  PHE54      -0.0003
     87  CE2       39.6420   44.8170   53.1720 C.ar   54  PHE54      -0.0003
     88  CZ        40.6110   43.9820   52.5890 C.ar   54  PHE54      -0.0000
     89  N         41.6560   50.4300   55.5300 N.am   55  LYS55      -0.1977
     90  CA        41.7930   51.5270   56.4750 C.3    55  LYS55       0.1596
     91  C         41.0840   51.0990   57.7650 C.2    55  LYS55       0.2287
     92  O         39.9740   50.5750   57.7120 O.2    55  LYS55      -0.2864
     93  CB        41.1350   52.7980   55.9390 C.3    55  LYS55       0.0298
     94  CG        41.3310   54.0210   56.8410 C.3    55  LYS55       0.0038
     95  CD        40.6900   55.2250   56.2200 C.3    55  LYS55       0.0206
     96  CE        41.3990   56.4770   56.6010 C.3    55  LYS55       0.1093
     97  NZ        42.8410   56.4300   56.2440 N.3    55  LYS55      -0.1314
     98  N         38.9250   51.8340   60.5780 N.3    57  LEU57      -0.1245
     99  CA        37.9740   52.8800   60.8830 C.3    57  LEU57       0.1561
    100  C         37.7360   53.0080   62.4010 C.2    57  LEU57       0.2260
    101  O         37.9370   52.0530   63.1520 O.2    57  LEU57      -0.2867
    102  CB        36.6640   52.6040   60.1340 C.3    57  LEU57       0.0270
    103  CG        36.4840   52.8480   58.6170 C.3    57  LEU57       0.0019
    104  CD1       37.7270   53.3920   57.9600 C.3    57  LEU57       0.0001
    105  CD2       35.9780   51.6120   57.9130 C.3    57  LEU57       0.0001
    106  N         36.3910   47.4380   60.5340 N.3    66  LEU66      -0.1231
    107  CA        36.7150   47.3850   59.1040 C.3    66  LEU66       0.1693
    108  C         35.4200   47.5190   58.3170 C.2    66  LEU66       0.2592
    109  O         35.3420   48.3000   57.3720 O.2    66  LEU66      -0.2718
    110  CB        37.3990   46.0740   58.7090 C.3    66  LEU66       0.0284
    111  CG        38.8010   45.8550   59.2290 C.3    66  LEU66       0.0019
    112  CD1       39.2660   44.5240   58.8000 C.3    66  LEU66       0.0001
    113  CD2       39.7480   46.9270   58.7450 C.3    66  LEU66       0.0001
    114  N         34.3980   46.7830   58.7520 N.am   67  TRP67      -0.1976
    115  CA        33.1080   46.7800   58.0910 C.3    67  TRP67       0.1640
    116  C         31.9500   47.0950   59.0270 C.2    67  TRP67       0.2290
    117  O         31.3570   48.1640   58.9400 O.2    67  TRP67      -0.2864
    118  CB        32.8670   45.4370   57.4050 C.3    67  TRP67       0.0576
    119  CG        33.8840   45.1200   56.3690 C.ar   67  TRP67       0.0006
    120  CD1       34.9030   44.2170   56.4650 C.ar   67  TRP67       0.0946
    121  CD2       33.9820   45.7020   55.0660 C.ar   67  TRP67       0.0152
    122  NE1       35.6300   44.1990   55.3020 N.ar   67  TRP67      -0.2442
    123  CE2       35.0830   45.0970   54.4220 C.ar   67  TRP67       0.0810
    124  CE3       33.2400   46.6700   54.3790 C.ar   67  TRP67       0.0012
    125  CZ2       35.4640   45.4240   53.1080 C.ar   67  TRP67       0.0191
    126  CZ3       33.6160   47.0030   53.0660 C.ar   67  TRP67       0.0001
    127  CH2       34.7200   46.3740   52.4460 C.ar   67  TRP67       0.0015
    128  N         37.8190   40.6730   54.0190 N.3    87  SER87      -0.1217
    129  CA        37.2130   41.1870   52.7790 C.3    87  SER87       0.1889
    130  C         35.7940   40.6440   52.5680 C.2    87  SER87       0.2288
    131  O         35.4900   39.5320   53.0020 O.2    87  SER87      -0.2866
    132  CB        38.1080   40.8110   51.5800 C.3    87  SER87       0.2089
    133  OG        37.3960   40.8070   50.3490 O.3    87  SER87      -0.2183
    134  N         34.4740   39.9270   49.6390 N.3    89  ASN89      -0.1240
    135  CA        34.3720   39.0690   48.4780 C.3    89  ASN89       0.1653
    136  C         35.4340   37.9990   48.3640 C.2    89  ASN89       0.2266
    137  O         35.2740   37.0580   47.6090 O.2    89  ASN89      -0.2867
    138  CB        34.2130   39.8870   47.2000 C.3    89  ASN89       0.1155
    139  CG        35.5000   40.4390   46.7060 C.2    89  ASN89       0.2627
    140  OD1       36.2720   39.7180   46.0720 O.2    89  ASN89      -0.2716
    141  ND2       35.7440   41.7310   46.9470 N.am   89  ASN89      -0.0877
@<TRIPOS>BOND
     1   140   139    2
     2    19    18   ar
     3   139   141   am
     4   139   138    1
     5    20    18   ar
     6    18    17    1
     7   138   135    1
     8    67    65   am
     9   137   136    2
    10    64    65    1
    11    64    63    1
    12    65    66    2
    13    17    16    1
    14    10     9    1
    15    16    13    1
    16   136   135    1
    17   135   134    1
    18    15    14    2
    19     7     8    1
    20     7     6    1
    21    14    13    1
    22     9     8    2
    23     9    11    1
    24    59    60    1
    25    77    75   ar
    26    77    76   ar
    27    13    12    1
    28    60    63    1
    29    60    61    1
    30    75    73   ar
    31     6     5    1
    32   133   132    1
    33    76    74   ar
    34     3     4    2
    35     3     2    1
    36    61    68   am
    37    61    62    2
    38    68    69    1
    39    73    74   ar
    40    73    72    1
    41     5     2    1
    42   132   129    1
    43    72    69    1
    44    71    70    2
    45     2     1    1
    46    69    70    1
    47   127   126   ar
    48   127   125   ar
    49    70    78   am
    50   130   129    1
    51   130   131    2
    52    88    86   ar
    53    88    87   ar
    54   129   128    1
    55    86    84   ar
    56   126   124   ar
    57   125   123   ar
    58    51    52    1
    59    51    48    1
    60    87    85   ar
    61    31    29    1
    62    84    83   ar
    63    78    79    1
    64    85    83   ar
    65    45    44   ar
    66    48    47    1
    67    48    49    1
    68    83    82    1
    69   124   121   ar
    70   123   121   ar
    71   123   122   ar
    72    29    30    1
    73    29    28    2
    74    79    82    1
    75    79    80    1
    76    47    40   am
    77    50    49    2
    78    28    27    1
    79   121   119   ar
    80   122   120   ar
    81    42    43    1
    82    42    39    1
    83    44    46   ar
    84    44    43    1
    85    80    89   am
    86    80    81    2
    87    40    41    2
    88    40    39    1
    89    89    90    1
    90    93    90    1
    91    93    94    1
    92    27    26    1
    93    95    96    1
    94    95    94    1
    95    39    38    1
    96    97    96    1
    97    37    36    1
    98   119   120   ar
    99   119   118    1
   100    58    57    1
   101    90    91    1
   102    38    34   am
   103    57    54    1
   104    26    25    1
   105   109   108    2
   106   118   115    1
   107    36    33    1
   108    34    33    1
   109    34    35    2
   110    92    91    2
   111    33    32    1
   112    54    55    1
   113    54    53    1
   114   105   103    1
   115   104   103    1
   116    55    56    2
   117   115   114    1
   118   115   116    1
   119   108   114   am
   120   108   107    1
   121    25    22    1
   122   103   102    1
   123   110   107    1
   124   110   111    1
   125   113   111    1
   126   112   111    1
   127   117   116    2
   128   107   106    1
   129    22    21    1
   130    22    23    1
   131   102    99    1
   132    23    24    2
   133    98    99    1
   134    99   100    1
   135   100   101    2
