@<TRIPOS>MOLECULE
tmp/1tzfA00.pdb
 159 154 0 0 0
SMALL
GASTEIGER

@<TRIPOS>ATOM
      1  N         22.2290    5.0870   22.5470 N.3     8  LEU8       -0.1231
      2  CA        21.9380    4.2110   23.6650 C.3     8  LEU8        0.1693
      3  C         20.5850    4.5160   24.2420 C.2     8  LEU8        0.2592
      4  O         20.2970    5.6490   24.6320 O.2     8  LEU8       -0.2718
      5  CB        22.9810    4.3470   24.7770 C.3     8  LEU8        0.0284
      6  CG        24.3600    3.9570   24.2830 C.3     8  LEU8        0.0019
      7  CD1       25.4290    4.4170   25.2670 C.3     8  LEU8        0.0001
      8  CD2       24.4500    2.4530   24.0750 C.3     8  LEU8        0.0001
      9  N         19.7680    3.4710   24.2990 N.am    9  ALA9       -0.1966
     10  CA        18.4180    3.6170   24.8270 C.3     9  ALA9        0.1728
     11  C         17.9460    2.4220   25.6490 C.2     9  ALA9        0.2617
     12  O         16.7520    2.1880   25.8190 O.2     9  ALA9       -0.2715
     13  CB        17.4300    4.0100   23.7380 C.3     9  ALA9        0.0334
     14  N         18.8990    1.6660   26.1730 N.am   10  GLY10      -0.1940
     15  CA        18.5970    0.5140   26.9990 C.3    10  GLY10       0.2014
     16  C         18.7530    0.9060   28.4640 C.2    10  GLY10       0.2639
     17  O         18.6910    2.0970   28.8200 O.2    10  GLY10      -0.2714
     18  N         18.9730   -0.0960   29.3130 N.am   11  GLY11      -0.1939
     19  CA        19.1260    0.1140   30.7350 C.3    11  GLY11       0.2014
     20  C         17.8090   -0.0440   31.5110 C.2    11  GLY11       0.2638
     21  O         16.8890   -0.7710   31.1140 O.2    11  GLY11      -0.2714
     22  N         17.7700    0.6790   32.6240 N.am   12  LEU12      -0.1977
     23  CA        16.7150    0.7660   33.6100 C.3    12  LEU12       0.1596
     24  C         15.3040    1.1790   33.1890 C.2    12  LEU12       0.2287
     25  O         15.0200    1.9390   32.2520 O.2    12  LEU12      -0.2864
     26  CB        17.1590    1.6620   34.7770 C.3    12  LEU12       0.0297
     27  CG        17.7950    0.8740   35.9070 C.3    12  LEU12       0.0022
     28  CD1       17.3460    1.4940   37.2280 C.3    12  LEU12       0.0001
     29  CD2       17.3950   -0.5970   35.7940 C.3    12  LEU12       0.0001
     30  N         14.2610    5.4570   29.0640 N.3    17  LYS17      -0.1231
     31  CA        14.6880    6.7800   29.4200 C.3    17  LYS17       0.1678
     32  C         14.5900    7.7920   28.2820 C.2    17  LYS17       0.2434
     33  O         14.1420    8.9310   28.4820 O.2    17  LYS17      -0.2733
     34  CB        16.0940    6.7330   29.9870 C.3    17  LYS17       0.0284
     35  CG        16.3360    7.7680   31.0710 C.3    17  LYS17       0.0035
     36  CD        17.8150    8.0750   31.2540 C.3    17  LYS17       0.0206
     37  CE        18.0590    9.2330   32.2110 C.3    17  LYS17       0.1093
     38  NZ        19.0530    8.9260   33.2510 N.3    17  LYS17      -0.1314
     39  N         15.0290    7.3910   27.0870 N.am   18  PRO18      -0.2729
     40  CA        15.0170    8.3110   25.9570 C.3    18  PRO18       0.1401
     41  C         13.6350    8.7030   25.4410 C.2    18  PRO18       0.2269
     42  O         13.4440    9.6900   24.6890 O.2    18  PRO18      -0.2865
     43  CB        15.9810    7.7290   24.9200 C.3    18  PRO18       0.0296
     44  CG        16.9040    6.7980   25.7060 C.3    18  PRO18       0.0237
     45  CD        16.1570    6.4290   26.9900 C.3    18  PRO18       0.0939
     46  N         22.2870   -5.9490   28.6430 N.3    98  SER98      -0.1202
     47  CA        23.5590   -5.4000   28.2510 C.3    98  SER98       0.2020
     48  C         23.8970   -4.0340   28.8490 C.2    98  SER98       0.2619
     49  O         23.0550   -3.2080   29.2430 O.2    98  SER98      -0.2717
     50  CB        23.8600   -5.4610   26.7580 C.3    98  SER98       0.2103
     51  OG        23.0130   -6.3660   26.0960 O.3    98  SER98      -0.2182
     52  N         25.2040   -3.8520   28.8980 N.am   99  MET99      -0.1965
     53  CA        25.8770   -2.6780   29.3610 C.3    99  MET99       0.1736
     54  C         26.1180   -1.8570   28.1380 C.2    99  MET99       0.2617
     55  O         25.9070   -2.3280   27.0110 O.2    99  MET99      -0.2715
     56  CB        27.2080   -3.0660   30.0270 C.3    99  MET99       0.0427
     57  CG        26.9020   -3.7500   31.3390 C.3    99  MET99       0.0599
     58  SD        25.6640   -2.7890   32.2510 S.3    99  MET99      -0.1393
     59  CE        25.0710   -3.9550   33.4850 C.3    99  MET99       0.0692
     60  N         26.5340   -0.6260   28.3680 N.am  100  THR100     -0.1951
     61  CA        26.7590    0.2840   27.2690 C.3   100  THR100      0.1897
     62  C         27.7280   -0.1730   26.2280 C.2   100  THR100      0.2313
     63  O         27.4590    0.0510   25.0450 O.2   100  THR100     -0.2863
     64  CB        27.1160    1.6670   27.7510 C.3   100  THR100      0.1794
     65  OG1       28.2780    1.5580   28.5550 O.3   100  THR100     -0.2208
     66  CG2       25.8860    2.1510   28.5190 C.3   100  THR100      0.0378
     67  N         26.0810   -3.0330   24.1650 N.3   103  ARG103     -0.1245
     68  CA        25.1270   -2.5630   23.1590 C.3   103  ARG103      0.1563
     69  C         25.7830   -2.1110   21.8670 C.2   103  ARG103      0.2260
     70  O         25.2990   -2.3830   20.7590 O.2   103  ARG103     -0.2867
     71  CB        24.2360   -1.4650   23.7270 C.3   103  ARG103      0.0307
     72  CG        23.6140   -1.8650   25.0600 C.3   103  ARG103      0.0489
     73  CD        22.3860   -1.0230   25.4140 C.3   103  ARG103      0.2205
     74  NE        21.8470   -1.4670   26.6840 N.pl3 103  ARG103     -0.0865
     75  CZ        20.8270   -2.2700   26.7460 C.cat 103  ARG103      0.5346
     76  NH1       20.2290   -2.7320   25.6360 N.pl3 103  ARG103      0.1354
     77  NH2       20.4210   -2.6880   27.9500 N.pl3 103  ARG103      0.1354
     78  N         24.6980    9.0640   24.3430 N.3   121  TYR121     -0.1227
     79  CA        23.6980    8.7450   25.3450 C.3   121  TYR121      0.1736
     80  C         22.3500    9.2830   24.8690 C.2   121  TYR121      0.2596
     81  O         22.3040   10.3510   24.2390 O.2   121  TYR121     -0.2718
     82  CB        24.0680    9.4160   26.6880 C.3   121  TYR121      0.0548
     83  CG        25.4880    9.0220   27.0870 C.ar  121  TYR121     -0.0200
     84  CD1       26.5500    9.9330   27.0540 C.ar  121  TYR121     -0.0009
     85  CD2       25.7630    7.7090   27.4690 C.ar  121  TYR121     -0.0009
     86  CE1       27.8470    9.5580   27.4100 C.ar  121  TYR121      0.0417
     87  CE2       27.0560    7.3040   27.8120 C.ar  121  TYR121      0.0417
     88  CZ        28.0960    8.2320   27.7680 C.ar  121  TYR121      0.1957
     89  OH        29.3520    7.8370   28.1010 O.3   121  TYR121     -0.2866
     90  N         21.2450    8.5550   25.1390 N.am  122  GLY122     -0.1942
     91  CA        19.9090    9.0060   24.7090 C.3   122  GLY122      0.2014
     92  C         19.2360    9.9770   25.6860 C.2   122  GLY122      0.2638
     93  O         18.0250   10.2200   25.6300 O.2   122  GLY122     -0.2714
     94  N         20.0220   10.5530   26.6020 N.am  123  ASP123     -0.1971
     95  CA        19.4440   11.4560   27.5710 C.3   123  ASP123      0.1709
     96  C         20.1140   12.8320   27.6900 C.2   123  ASP123      0.2293
     97  O         19.8660   13.5340   28.6620 O.2   123  ASP123     -0.2864
     98  CB        19.3590   10.7550   28.9380 C.3   123  ASP123      0.1436
     99  CG        20.7230   10.5300   29.4900 C.2   123  ASP123      0.3671
    100  OD1       21.7480   10.5730   28.8380 O.co2 123  ASP123     -0.2456
    101  OD2       20.7150   10.3650   30.7670 O.co2 123  ASP123     -0.2456
    102  N         33.3500   17.1660   32.1560 N.3   179  ILE179     -0.1231
    103  CA        33.1490   15.7530   32.3020 C.3   179  ILE179      0.1692
    104  C         32.7740   15.1730   30.9710 C.2   179  ILE179      0.2592
    105  O         32.7460   15.9290   29.9990 O.2   179  ILE179     -0.2718
    106  CB        32.0830   15.4860   33.3300 C.3   179  ILE179      0.0266
    107  CG1       30.8920   16.4270   33.0730 C.3   179  ILE179      0.0019
    108  CG2       32.7090   15.7370   34.6870 C.3   179  ILE179      0.0020
    109  CD1       29.9610   16.0140   31.9120 C.3   179  ILE179      0.0001
    110  N         32.4960   13.8540   30.9790 N.am  180  ASN180     -0.1960
    111  CA        32.1000   13.1120   29.7980 C.3   180  ASN180      0.1819
    112  C         30.7030   13.5130   29.3800 C.2   180  ASN180      0.2621
    113  O         29.7150   13.1240   29.9970 O.2   180  ASN180     -0.2715
    114  CB        32.2020   11.5830   30.0140 C.3   180  ASN180      0.1195
    115  CG        31.6280   10.7790   28.8570 C.2   180  ASN180      0.2630
    116  OD1       31.5590   11.2560   27.7130 O.2   180  ASN180     -0.2716
    117  ND2       31.1940    9.5550   29.1550 N.am  180  ASN180     -0.0877
    118  N         30.6180   14.3100   28.3330 N.am  181  GLY181     -0.1954
    119  CA        29.3060   14.7100   27.8970 C.3   181  GLY181      0.1869
    120  C         28.8030   13.7600   26.8300 C.2   181  GLY181      0.2309
    121  O         27.7440   13.9570   26.2950 O.2   181  GLY181     -0.2863
    122  N         32.2070    2.9560   29.5410 N.3   202  GLU202     -0.1245
    123  CA        32.8820    3.8880   30.4080 C.3   202  GLU202      0.1567
    124  C         33.8800    3.2260   31.3080 C.2   202  GLU202      0.2260
    125  O         34.5340    3.8570   32.1390 O.2   202  GLU202     -0.2867
    126  CB        31.8890    4.7320   31.1940 C.3   202  GLU202      0.0388
    127  CG        30.9440    5.4360   30.2180 C.3   202  GLU202      0.1160
    128  CD        29.8900    4.5030   29.6650 C.2   202  GLU202      0.3649
    129  OE1       29.6440    3.4000   30.1330 O.co2 202  GLU202     -0.2457
    130  OE2       29.2830    5.0020   28.6210 O.co2 202  GLU202     -0.2457
    131  N         24.7210   22.1930   27.4830 N.3   224  TRP224     -0.1241
    132  CA        24.6850   20.7510   27.5950 C.3   224  TRP224      0.1605
    133  C         23.9440   20.3880   28.8640 C.2   224  TRP224      0.2264
    134  O         24.3470   20.7520   29.9910 O.2   224  TRP224     -0.2867
    135  CB        26.0750   20.0460   27.6260 C.3   224  TRP224      0.0550
    136  CG        25.9440   18.5450   27.8680 C.ar  224  TRP224      0.0003
    137  CD1       25.5970   17.5990   26.9480 C.ar  224  TRP224      0.0946
    138  CD2       26.0890   17.8320   29.1190 C.ar  224  TRP224      0.0152
    139  NE1       25.5060   16.3560   27.5290 N.ar  224  TRP224     -0.2442
    140  CE2       25.8100   16.4660   28.8610 C.ar  224  TRP224      0.0810
    141  CE3       26.4280   18.2190   30.4150 C.ar  224  TRP224      0.0012
    142  CZ2       25.8620   15.5050   29.8710 C.ar  224  TRP224      0.0191
    143  CZ3       26.5010   17.2650   31.3950 C.ar  224  TRP224      0.0001
    144  CH2       26.2070   15.9310   31.1370 C.ar  224  TRP224      0.0015
    145  N         21.8340   16.9810   30.6820 N.3   226  PRO226     -0.2116
    146  CA        21.4220   15.5890   30.7140 C.3   226  PRO226      0.1372
    147  C         20.0880   15.5830   31.4290 C.2   226  PRO226      0.2244
    148  O         19.8340   16.5000   32.2080 O.2   226  PRO226     -0.2868
    149  CB        22.3870   14.8960   31.6630 C.3   226  PRO226      0.0268
    150  CG        22.8270   15.9950   32.6320 C.3   226  PRO226      0.0207
    151  CD        22.6420   17.3050   31.9000 C.3   226  PRO226      0.0892
    152  N         18.3980   13.6170   33.9890 N.3   228  ASP228     -0.1239
    153  CA        18.5390   12.5650   34.9700 C.3   228  ASP228      0.1674
    154  C         17.5220   12.6520   36.0810 C.2   228  ASP228      0.2266
    155  O         16.9840   11.6560   36.5840 O.2   228  ASP228     -0.2867
    156  CB        19.9650   12.6750   35.5810 C.3   228  ASP228      0.1410
    157  CG        21.1040   12.2470   34.6760 C.2   228  ASP228      0.3668
    158  OD1       21.0360   11.2900   33.9060 O.co2 228  ASP228     -0.2456
    159  OD2       22.1870   12.9850   34.8320 O.co2 228  ASP228     -0.2456
@<TRIPOS>BOND
     1    70    69    2
     2    69    68    1
     3     1     2    1
     4    68    71    1
     5    68    67    1
     6     2     3    1
     7     2     5    1
     8    71    72    1
     9    13    10    1
    10     8     6    1
    11    81    80    2
    12     3     9   am
    13     3     4    2
    14     6     5    1
    15     6     7    1
    16     9    10    1
    17    78    79    1
    18    42    41    2
    19    91    90    1
    20    91    92    1
    21    10    11    1
    22    80    90   am
    23    80    79    1
    24    43    44    1
    25    43    40    1
    26    63    62    2
    27    72    73    1
    28    79    82    1
    29    73    74    1
    30    41    40    1
    31    93    92    2
    32    76    75    1
    33    11    12    2
    34    11    14   am
    35    92    94   am
    36    44    45    1
    37    40    39    1
    38    51    50    1
    39    14    15    1
    40    62    61    1
    41   121   120    2
    42    94    95    1
    43    74    75    2
    44    82    83    1
    45    75    77    1
    46    50    47    1
    47   120   119    1
    48   137   139   ar
    49   137   136   ar
    50    45    39    1
    51    15    16    1
    52    55    54    2
    53    84    83   ar
    54    84    86   ar
    55    83    85   ar
    56    39    32   am
    57    61    64    1
    58    61    60    1
    59    86    88   ar
    60    85    87   ar
    61   131   132    1
    62   139   140   ar
    63    95    96    1
    64    95    98    1
    65   132   135    1
    66   132   133    1
    67   135   136    1
    68    96    97    2
    69   116   115    2
    70    64    66    1
    71    64    65    1
    72    88    87   ar
    73    88    89    1
    74   136   138   ar
    75   119   118    1
    76    54    60   am
    77    54    53    1
    78    47    46    1
    79    47    48    1
    80    32    33    2
    81    32    31    1
    82   118   112   am
    83    16    17    2
    84    16    18   am
    85   130   128   ar
    86   100    99   ar
    87    48    52   am
    88    48    49    2
    89   115   117   am
    90   115   114    1
    91   140   138   ar
    92   140   142   ar
    93   133   134    2
    94    52    53    1
    95    98    99    1
    96    30    31    1
    97   138   141   ar
    98    18    19    1
    99    53    56    1
   100   112   111    1
   101   112   113    2
   102    31    34    1
   103    99   101   ar
   104   122   123    1
   105   128   129   ar
   106   128   127    1
   107   111   114    1
   108   111   110    1
   109   142   144   ar
   110    34    35    1
   111   105   104    2
   112    56    57    1
   113   127   126    1
   114   123   126    1
   115   123   124    1
   116   141   143   ar
   117   145   146    1
   118   145   151    1
   119   146   147    1
   120   146   149    1
   121    19    20    1
   122   104   110   am
   123   104   103    1
   124    35    36    1
   125    21    20    2
   126   144   143   ar
   127    36    37    1
   128   124   125    2
   129    57    58    1
   130   147   148    2
   131    20    22   am
   132   149   150    1
   133   151   150    1
   134   109   107    1
   135   102   103    1
   136    37    38    1
   137    58    59    1
   138    25    24    2
   139   103   106    1
   140    22    23    1
   141   107   106    1
   142    24    23    1
   143   106   108    1
   144    23    26    1
   145   158   157   ar
   146   152   153    1
   147   157   159   ar
   148   157   156    1
   149    26    27    1
   150   153   156    1
   151   153   154    1
   152    29    27    1
   153    27    28    1
   154   154   155    2
