@<TRIPOS>MOLECULE
tmp/1tzkA01.pdb
 107 103 0 0 0
SMALL
GASTEIGER

@<TRIPOS>ATOM
      1  N         17.8480   27.1810  157.3480 N.3    51  LYS51      -0.1245
      2  CA        18.8730   28.1750  157.0390 C.3    51  LYS51       0.1561
      3  C         18.5400   29.5370  157.5820 C.2    51  LYS51       0.2260
      4  O         19.4270   30.3040  157.9790 O.2    51  LYS51      -0.2867
      5  CB        19.0870   28.2920  155.5180 C.3    51  LYS51       0.0271
      6  CG        19.4220   26.9950  154.8440 C.3    51  LYS51       0.0035
      7  CD        20.7190   26.4170  155.3840 C.3    51  LYS51       0.0206
      8  CE        21.1210   25.1360  154.6280 C.3    51  LYS51       0.1093
      9  NZ        20.1320   24.0890  154.8310 N.3    51  LYS51      -0.1314
     10  N         26.0470   30.6680  148.0610 N.3    73  ILE73      -0.1231
     11  CA        26.2370   29.6990  147.0020 C.3    73  ILE73       0.1692
     12  C         25.5750   28.4060  147.3620 C.2    73  ILE73       0.2592
     13  O         25.3240   28.1480  148.5250 O.2    73  ILE73      -0.2718
     14  CB        27.7680   29.4380  146.8520 C.3    73  ILE73       0.0266
     15  CG1       28.0540   28.2480  145.9340 C.3    73  ILE73       0.0019
     16  CG2       28.3560   29.1150  148.2170 C.3    73  ILE73       0.0020
     17  CD1       29.5740   28.0850  145.6000 C.3    73  ILE73       0.0001
     18  N         25.2960   27.5980  146.3490 N.am   74  GLY74      -0.1957
     19  CA        24.7000   26.2930  146.5480 C.3    74  GLY74       0.1869
     20  C         24.3020   25.6840  145.2170 C.2    74  GLY74       0.2309
     21  O         24.5220   26.2870  144.1700 O.2    74  GLY74      -0.2863
     22  N         18.9020   23.8130  143.0280 N.3    77  GLN77      -0.1231
     23  CA        17.6920   23.8580  143.8610 C.3    77  GLN77       0.1698
     24  C         18.0050   24.1020  145.3340 C.2    77  GLN77       0.2593
     25  O         17.2510   23.6780  146.2240 O.2    77  GLN77      -0.2718
     26  CB        16.8970   22.5660  143.6870 C.3    77  GLN77       0.0381
     27  CG        16.0110   22.6280  142.4210 C.3    77  GLN77       0.0905
     28  CD        15.0150   23.7930  142.4630 C.2    77  GLN77       0.2608
     29  OE1       14.6450   24.3550  141.4160 O.2    77  GLN77      -0.2717
     30  NE2       14.5580   24.1470  143.6670 N.am   77  GLN77      -0.0878
     31  N         19.1180   24.7910  145.5770 N.am   78  SER78      -0.1938
     32  CA        19.5290   25.1150  146.9470 C.3    78  SER78       0.2055
     33  C         18.4580   25.8980  147.7150 C.2    78  SER78       0.2643
     34  O         17.9180   26.8880  147.2200 O.2    78  SER78      -0.2714
     35  CB        20.7870   25.9680  146.9490 C.3    78  SER78       0.2130
     36  OG        20.9060   26.5970  148.2090 O.3    78  SER78      -0.2179
     37  N         18.1890   25.4830  148.9370 N.am   79  ASN79      -0.1957
     38  CA        17.2110   26.1740  149.7690 C.3    79  ASN79       0.1819
     39  C         17.9130   27.3740  150.3650 C.2    79  ASN79       0.2621
     40  O         17.3530   28.4660  150.4830 O.2    79  ASN79      -0.2715
     41  CB        16.7160   25.2240  150.8660 C.3    79  ASN79       0.1195
     42  CG        15.9330   24.0890  150.3000 C.2    79  ASN79       0.2630
     43  OD1       14.8680   24.2990  149.7150 O.2    79  ASN79      -0.2716
     44  ND2       16.4360   22.8820  150.4560 N.am   79  ASN79      -0.0877
     45  N         19.1840   27.1580  150.7060 N.am   80  GLN80      -0.1977
     46  CA        20.0210   28.1950  151.2800 C.3    80  GLN80       0.1601
     47  C         19.9960   29.4940  150.5200 C.2    80  GLN80       0.2287
     48  O         19.6990   30.5380  151.0820 O.2    80  GLN80      -0.2864
     49  CB        21.4660   27.6950  151.3450 C.3    80  GLN80       0.0394
     50  CG        22.5220   28.7890  151.5010 C.3    80  GLN80       0.0908
     51  CD        22.6740   29.2150  152.9290 C.2    80  GLN80       0.2608
     52  OE1       22.3060   28.4770  153.8490 O.2    80  GLN80      -0.2717
     53  NE2       23.2280   30.3910  153.1350 N.am   80  GLN80      -0.0878
     54  N         25.2410   20.7830  141.2930 N.3   102  TRP102     -0.1241
     55  CA        25.7700   19.8650  142.2940 C.3   102  TRP102      0.1605
     56  C         25.1070   18.5160  142.2260 C.2   102  TRP102      0.2264
     57  O         25.4380   17.6180  142.9970 O.2   102  TRP102     -0.2867
     58  CB        25.5460   20.4170  143.6980 C.3   102  TRP102      0.0550
     59  CG        26.3900   21.5880  144.0690 C.ar  102  TRP102      0.0003
     60  CD1       27.3760   22.1620  143.3240 C.ar  102  TRP102      0.0946
     61  CD2       26.3780   22.2790  145.3230 C.ar  102  TRP102      0.0152
     62  NE1       27.9860   23.1650  144.0410 N.ar  102  TRP102     -0.2442
     63  CE2       27.3920   23.2550  145.2710 C.ar  102  TRP102      0.0810
     64  CE3       25.6100   22.1620  146.4870 C.ar  102  TRP102      0.0012
     65  CZ2       27.6630   24.1110  146.3390 C.ar  102  TRP102      0.0191
     66  CZ3       25.8790   23.0130  147.5540 C.ar  102  TRP102      0.0001
     67  CH2       26.9020   23.9760  147.4670 C.ar  102  TRP102      0.0015
     68  N         28.4680   27.7630  151.8830 N.3   153  ALA153     -0.1231
     69  CA        27.4250   26.7850  151.6420 C.3   153  ALA153      0.1694
     70  C         26.6970   26.4270  152.9470 C.2   153  ALA153      0.2592
     71  O         27.3200   26.2170  153.9960 O.2   153  ALA153     -0.2718
     72  CB        28.0140   25.5360  151.0060 C.3   153  ALA153      0.0304
     73  N         25.3690   26.3920  152.8590 N.am  154  GLY154     -0.1957
     74  CA        24.5230   26.0530  153.9860 C.3   154  GLY154      0.1869
     75  C         24.6590   26.8850  155.2380 C.2   154  GLY154      0.2309
     76  O         23.9580   26.6280  156.2170 O.2   154  GLY154     -0.2863
     77  N         25.5910   19.9580  155.0330 N.3   192  THR192     -0.1218
     78  CA        26.7490   20.7790  155.2890 C.3   192  THR192      0.1862
     79  C         27.0980   20.7430  156.7940 C.2   192  THR192      0.2287
     80  O         28.1950   21.1310  157.1810 O.2   192  THR192     -0.2866
     81  CB        26.6030   22.2150  154.7500 C.3   192  THR192      0.1770
     82  OG1       25.5320   22.8810  155.4030 O.3   192  THR192     -0.2211
     83  CG2       26.3400   22.1930  153.2290 C.3   192  THR192      0.0375
     84  N         23.8290   12.6160  146.4360 N.3   261  TYR261     -0.1241
     85  CA        23.2490   13.8480  146.9440 C.3   261  TYR261      0.1605
     86  C         22.2810   14.3290  145.8480 C.2   261  TYR261      0.2264
     87  O         22.5960   14.2330  144.6640 O.2   261  TYR261     -0.2867
     88  CB        24.3320   14.9100  147.1540 C.3   261  TYR261      0.0534
     89  CG        23.7630   16.3030  147.3330 C.ar  261  TYR261     -0.0201
     90  CD1       23.0810   16.6640  148.5010 C.ar  261  TYR261     -0.0009
     91  CD2       23.8340   17.2340  146.3010 C.ar  261  TYR261     -0.0009
     92  CE1       22.4780   17.9200  148.6230 C.ar  261  TYR261      0.0417
     93  CE2       23.2350   18.4900  146.4160 C.ar  261  TYR261      0.0417
     94  CZ        22.5550   18.8230  147.5770 C.ar  261  TYR261      0.1957
     95  OH        21.9450   20.0490  147.6540 O.3   261  TYR261     -0.2866
     96  N         16.4980   16.2800  150.7430 N.3   287  TYR287     -0.1241
     97  CA        16.8270   16.3570  152.1690 C.3   287  TYR287      0.1605
     98  C         15.8690   15.7080  153.1610 C.2   287  TYR287      0.2264
     99  O         16.1420   14.6380  153.6880 O.2   287  TYR287     -0.2867
    100  CB        16.9650   17.8160  152.5800 C.3   287  TYR287      0.0534
    101  CG        18.0440   18.5990  151.8760 C.ar  287  TYR287     -0.0201
    102  CD1       19.3970   18.3990  152.1860 C.ar  287  TYR287     -0.0009
    103  CD2       17.7200   19.5670  150.9320 C.ar  287  TYR287     -0.0009
    104  CE1       20.3900   19.1530  151.5700 C.ar  287  TYR287      0.0417
    105  CE2       18.6990   20.3240  150.3130 C.ar  287  TYR287      0.0417
    106  CZ        20.0370   20.1130  150.6340 C.ar  287  TYR287      0.1957
    107  OH        21.0130   20.8400  149.9980 O.3   287  TYR287     -0.2866
@<TRIPOS>BOND
     1    54    55    1
     2    29    28    2
     3    56    55    1
     4    56    57    2
     5    55    58    1
     6    27    28    1
     7    27    26    1
     8    28    30   am
     9    22    23    1
    10    60    62   ar
    11    60    59   ar
    12    26    23    1
    13    58    59    1
    14    23    24    1
    15    62    63   ar
    16    59    61   ar
    17    21    20    2
    18    87    86    2
    19    20    19    1
    20    63    61   ar
    21    63    65   ar
    22    61    64   ar
    23    24    31   am
    24    24    25    2
    25    31    32    1
    26    17    15    1
    27    86    85    1
    28    15    14    1
    29    91    93   ar
    30    91    89   ar
    31    65    67   ar
    32    18    19    1
    33    18    12   am
    34    93    94   ar
    35    84    85    1
    36    64    66   ar
    37    14    11    1
    38    14    16    1
    39    85    88    1
    40    32    35    1
    41    32    33    1
    42    35    36    1
    43    11    12    1
    44    11    10    1
    45    88    89    1
    46    34    33    2
    47    89    90   ar
    48    12    13    2
    49    67    66   ar
    50    94    95    1
    51    94    92   ar
    52    33    37   am
    53    90    92   ar
    54    37    38    1
    55    43    42    2
    56    38    39    1
    57    38    41    1
    58   107   106    1
    59    42    44   am
    60    42    41    1
    61   105   106   ar
    62   105   103   ar
    63    39    40    2
    64    39    45   am
    65    47    48    2
    66    47    46    1
    67   106   104   ar
    68    45    46    1
    69    96    97    1
    70   103   101   ar
    71    72    69    1
    72    46    49    1
    73    49    50    1
    74    50    51    1
    75   104   102   ar
    76    69    68    1
    77    69    70    1
    78   101   102   ar
    79   101   100    1
    80    97   100    1
    81    97    98    1
    82    73    70   am
    83    73    74    1
    84    51    53   am
    85    51    52    2
    86    70    71    2
    87    98    99    2
    88    83    81    1
    89    74    75    1
    90     8     9    1
    91     8     7    1
    92    81    78    1
    93    81    82    1
    94     6     7    1
    95     6     5    1
    96    77    78    1
    97    75    76    2
    98    78    79    1
    99     5     2    1
   100    79    80    2
   101     2     1    1
   102     2     3    1
   103     3     4    2
