@<TRIPOS>MOLECULE
tmp/1tzmA01.pdb
 118 114 0 0 0
SMALL
GASTEIGER

@<TRIPOS>ATOM
      1  N         18.2120   27.2580  157.2240 N.3    51  LYS51      -0.1245
      2  CA        19.1970   28.2860  156.9350 C.3    51  LYS51       0.1561
      3  C         18.8270   29.6550  157.4810 C.2    51  LYS51       0.2260
      4  O         19.6930   30.4230  157.9090 O.2    51  LYS51      -0.2867
      5  CB        19.4350   28.4070  155.4220 C.3    51  LYS51       0.0271
      6  CG        19.7840   27.1240  154.7410 C.3    51  LYS51       0.0035
      7  CD        21.0020   26.4620  155.3780 C.3    51  LYS51       0.0206
      8  CE        21.4270   25.2220  154.5940 C.3    51  LYS51       0.1093
      9  NZ        20.7150   23.9870  154.9680 N.3    51  LYS51      -0.1314
     10  N         26.4050   30.6390  147.9680 N.3    73  ILE73      -0.1231
     11  CA        26.5240   29.6920  146.8890 C.3    73  ILE73       0.1692
     12  C         25.8740   28.4030  147.2390 C.2    73  ILE73       0.2593
     13  O         25.6670   28.1220  148.4070 O.2    73  ILE73      -0.2718
     14  CB        28.0520   29.4110  146.6520 C.3    73  ILE73       0.0266
     15  CG1       28.2830   28.0580  145.9610 C.3    73  ILE73       0.0019
     16  CG2       28.7530   29.3760  147.9980 C.3    73  ILE73       0.0020
     17  CD1       29.7600   27.7260  145.6920 C.3    73  ILE73       0.0001
     18  N         25.5640   27.6180  146.2100 N.am   74  GLY74      -0.1942
     19  CA        24.9850   26.3050  146.3910 C.3    74  GLY74       0.2014
     20  C         24.6050   25.7040  145.0380 C.2    74  GLY74       0.2639
     21  O         24.7980   26.3390  143.9980 O.2    74  GLY74      -0.2714
     22  N         24.0820   24.4810  145.0520 N.am   75  GLY75      -0.1954
     23  CA        23.6390   23.8360  143.8230 C.3    75  GLY75       0.1869
     24  C         22.5050   24.6110  143.1400 C.2    75  GLY75       0.2309
     25  O         22.0770   25.6760  143.5880 O.2    75  GLY75      -0.2863
     26  N         19.3110   23.8370  142.8810 N.3    77  GLN77      -0.1231
     27  CA        18.0980   23.8880  143.6940 C.3    77  GLN77       0.1698
     28  C         18.3640   24.1570  145.1580 C.2    77  GLN77       0.2593
     29  O         17.5660   23.7930  146.0310 O.2    77  GLN77      -0.2718
     30  CB        17.2830   22.5980  143.5110 C.3    77  GLN77       0.0381
     31  CG        16.3760   22.6500  142.2390 C.3    77  GLN77       0.0905
     32  CD        15.4540   23.8790  142.2550 C.2    77  GLN77       0.2608
     33  OE1       15.0890   24.4350  141.2030 O.2    77  GLN77      -0.2717
     34  NE2       15.0700   24.2970  143.4570 N.am   77  GLN77      -0.0878
     35  N         19.4800   24.8340  145.4100 N.am   78  SER78      -0.1938
     36  CA        19.8710   25.1860  146.7590 C.3    78  SER78       0.2055
     37  C         18.8310   25.9660  147.5660 C.2    78  SER78       0.2643
     38  O         18.3410   27.0030  147.1190 O.2    78  SER78      -0.2714
     39  CB        21.1460   26.0180  146.7190 C.3    78  SER78       0.2130
     40  OG        21.3360   26.6180  147.9780 O.3    78  SER78      -0.2179
     41  N         18.5140   25.4770  148.7560 N.am   79  ASN79      -0.1957
     42  CA        17.5780   26.1730  149.6210 C.3    79  ASN79       0.1819
     43  C         18.3100   27.3510  150.2490 C.2    79  ASN79       0.2621
     44  O         17.7170   28.4000  150.4570 O.2    79  ASN79      -0.2715
     45  CB        17.0520   25.2530  150.7230 C.3    79  ASN79       0.1195
     46  CG        16.3170   24.0730  150.1810 C.2    79  ASN79       0.2630
     47  OD1       15.3610   24.2310  149.4230 O.2    79  ASN79      -0.2716
     48  ND2       16.7400   22.8770  150.5600 N.am   79  ASN79      -0.0877
     49  N         19.6100   27.1700  150.5340 N.am   80  GLN80      -0.1977
     50  CA        20.4300   28.2240  151.1250 C.3    80  GLN80       0.1601
     51  C         20.4200   29.5230  150.3480 C.2    80  GLN80       0.2287
     52  O         20.1640   30.5770  150.9130 O.2    80  GLN80      -0.2864
     53  CB        21.8960   27.7750  151.2720 C.3    80  GLN80       0.0394
     54  CG        22.8710   28.9710  151.2790 C.3    80  GLN80       0.0908
     55  CD        23.2120   29.4560  152.6750 C.2    80  GLN80       0.2608
     56  OE1       22.5640   29.0900  153.6480 O.2    80  GLN80      -0.2717
     57  NE2       24.2420   30.2830  152.7760 N.am   80  GLN80      -0.0878
     58  N         25.6910   20.8880  141.2210 N.3   102  TRP102     -0.1241
     59  CA        26.1150   19.9190  142.2280 C.3   102  TRP102      0.1605
     60  C         25.4290   18.5790  142.1310 C.2   102  TRP102      0.2264
     61  O         25.7950   17.6490  142.8400 O.2   102  TRP102     -0.2867
     62  CB        25.8620   20.4640  143.6260 C.3   102  TRP102      0.0550
     63  CG        26.7240   21.5920  143.9900 C.ar  102  TRP102      0.0003
     64  CD1       27.7190   22.1390  143.2390 C.ar  102  TRP102      0.0946
     65  CD2       26.6900   22.3200  145.2140 C.ar  102  TRP102      0.0152
     66  NE1       28.3140   23.1740  143.9250 N.ar  102  TRP102     -0.2442
     67  CE2       27.6990   23.3060  145.1410 C.ar  102  TRP102      0.0810
     68  CE3       25.9050   22.2360  146.3730 C.ar  102  TRP102      0.0012
     69  CZ2       27.9440   24.2050  146.1830 C.ar  102  TRP102      0.0191
     70  CZ3       26.1490   23.1240  147.4050 C.ar  102  TRP102      0.0001
     71  CH2       27.1610   24.0970  147.3030 C.ar  102  TRP102      0.0015
     72  N         28.7500   27.8890  151.7610 N.3   153  ALA153     -0.1231
     73  CA        27.6740   26.9320  151.5530 C.3   153  ALA153      0.1694
     74  C         26.9060   26.7070  152.8720 C.2   153  ALA153      0.2592
     75  O         27.5000   26.6400  153.9540 O.2   153  ALA153     -0.2718
     76  CB        28.2410   25.6180  151.0290 C.3   153  ALA153      0.0304
     77  N         25.5780   26.6140  152.7640 N.am  154  GLY154     -0.1957
     78  CA        24.7270   26.3980  153.9170 C.3   154  GLY154      0.1869
     79  C         24.9750   27.2170  155.1740 C.2   154  GLY154      0.2309
     80  O         24.3850   26.9310  156.2190 O.2   154  GLY154     -0.2863
     81  N         24.1510   17.8690  155.7410 N.3   191  VAL191     -0.1231
     82  CA        24.9310   17.9910  154.5320 C.3   191  VAL191      0.1692
     83  C         26.1150   18.9290  154.7040 C.2   191  VAL191      0.2592
     84  O         27.2340   18.4640  154.6820 O.2   191  VAL191     -0.2718
     85  CB        24.0720   18.3990  153.3100 C.3   191  VAL191      0.0266
     86  CG1       24.9720   18.7350  152.1220 C.3   191  VAL191      0.0020
     87  CG2       23.1710   17.2390  152.9280 C.3   191  VAL191      0.0020
     88  N         25.9190   20.2340  154.8620 N.am  192  THR192     -0.1953
     89  CA        27.0940   21.0460  155.0460 C.3   192  THR192      0.1897
     90  C         27.5220   20.9900  156.5340 C.2   192  THR192      0.2313
     91  O         28.6730   21.2680  156.8620 O.2   192  THR192     -0.2863
     92  CB        26.9080   22.5040  154.5240 C.3   192  THR192      0.1794
     93  OG1       25.9720   23.2190  155.3240 O.3   192  THR192     -0.2208
     94  CG2       26.4350   22.4850  153.0580 C.3   192  THR192      0.0378
     95  N         24.3340   12.8760  146.2260 N.3   261  TYR261     -0.1241
     96  CA        23.7240   14.0850  146.7410 C.3   261  TYR261      0.1605
     97  C         22.7140   14.5540  145.6680 C.2   261  TYR261      0.2264
     98  O         23.0140   14.5000  144.4750 O.2   261  TYR261     -0.2867
     99  CB        24.7830   15.1610  146.9800 C.3   261  TYR261      0.0534
    100  CG        24.1730   16.5350  147.1940 C.ar  261  TYR261     -0.0201
    101  CD1       23.3750   16.8150  148.3320 C.ar  261  TYR261     -0.0009
    102  CD2       24.3090   17.5290  146.2220 C.ar  261  TYR261     -0.0009
    103  CE1       22.7210   18.0680  148.4690 C.ar  261  TYR261      0.0417
    104  CE2       23.6630   18.7620  146.3500 C.ar  261  TYR261      0.0417
    105  CZ        22.8670   19.0260  147.4670 C.ar  261  TYR261      0.1957
    106  OH        22.1980   20.2380  147.5280 O.3   261  TYR261     -0.2866
    107  N         16.8570   16.4850  150.5480 N.3   287  TYR287     -0.1241
    108  CA        17.1770   16.5460  151.9720 C.3   287  TYR287      0.1605
    109  C         16.2350   15.8310  152.9320 C.2   287  TYR287      0.2264
    110  O         16.4710   14.6810  153.3140 O.2   287  TYR287     -0.2867
    111  CB        17.2820   18.0050  152.4040 C.3   287  TYR287      0.0534
    112  CG        18.3810   18.7830  151.7100 C.ar  287  TYR287     -0.0201
    113  CD1       19.7120   18.6440  152.1010 C.ar  287  TYR287     -0.0009
    114  CD2       18.0810   19.7070  150.7070 C.ar  287  TYR287     -0.0009
    115  CE1       20.7170   19.4140  151.5180 C.ar  287  TYR287      0.0417
    116  CE2       19.0730   20.4820  150.1210 C.ar  287  TYR287      0.0417
    117  CZ        20.3860   20.3300  150.5300 C.ar  287  TYR287      0.1957
    118  OH        21.3600   21.0870  149.9360 O.3   287  TYR287     -0.2866
@<TRIPOS>BOND
     1    33    32    2
     2    58    59    1
     3    60    59    1
     4    60    61    2
     5    59    62    1
     6    31    32    1
     7    31    30    1
     8    32    34   am
     9    26    27    1
    10    24    25    2
    11    24    23    1
    12    64    66   ar
    13    64    63   ar
    14    30    27    1
    15    62    63    1
    16    27    28    1
    17    23    22    1
    18    66    67   ar
    19    63    65   ar
    20    21    20    2
    21    98    97    2
    22    20    22   am
    23    20    19    1
    24    67    65   ar
    25    67    69   ar
    26    28    35   am
    27    28    29    2
    28    65    68   ar
    29    35    36    1
    30    97    96    1
    31    17    15    1
    32    15    14    1
    33    69    71   ar
    34    18    19    1
    35    18    12   am
    36   102   104   ar
    37   102   100   ar
    38    95    96    1
    39   104   105   ar
    40    68    70   ar
    41    14    11    1
    42    14    16    1
    43    39    36    1
    44    39    40    1
    45    96    99    1
    46    36    37    1
    47    11    12    1
    48    11    10    1
    49    99   100    1
    50    38    37    2
    51   100   101   ar
    52    12    13    2
    53    71    70   ar
    54   105   106    1
    55   105   103   ar
    56    37    41   am
    57   101   103   ar
    58    41    42    1
    59    47    46    2
    60    42    43    1
    61    42    45    1
    62   118   117    1
    63   116   117   ar
    64   116   114   ar
    65    46    48   am
    66    46    45    1
    67    43    44    2
    68    43    49   am
    69    51    52    2
    70    51    50    1
    71   117   115   ar
    72    49    50    1
    73   107   108    1
    74   114   112   ar
    75    76    73    1
    76    50    53    1
    77    53    54    1
    78    54    55    1
    79   115   113   ar
    80    73    72    1
    81    73    74    1
    82   112   113   ar
    83   112   111    1
    84   108   111    1
    85   108   109    1
    86    86    85    1
    87    55    57   am
    88    55    56    2
    89    77    74   am
    90    77    78    1
    91    74    75    2
    92    87    85    1
    93   109   110    2
    94    94    92    1
    95    85    82    1
    96    78    79    1
    97    92    89    1
    98    92    93    1
    99    82    83    1
   100    82    81    1
   101     8     9    1
   102     8     7    1
   103    84    83    2
   104    83    88   am
   105     6     7    1
   106     6     5    1
   107    88    89    1
   108    89    90    1
   109    79    80    2
   110     5     2    1
   111    90    91    2
   112     2     1    1
   113     2     3    1
   114     3     4    2
