@<TRIPOS>MOLECULE
tmp/1tzsA00.pdb
 228 226 0 0 0
SMALL
GASTEIGER

@<TRIPOS>ATOM
      1  N         -7.5400    1.0690   25.3180 N.3    11  GLU11      -0.1231
      2  CA        -6.0910    1.0040   25.3350 C.3    11  GLU11       0.1699
      3  C         -5.6410   -0.3710   24.8440 C.2    11  GLU11       0.2592
      4  O         -6.4540   -1.2700   24.6090 O.2    11  GLU11      -0.2718
      5  CB        -5.5640    1.2400   26.7610 C.3    11  GLU11       0.0402
      6  CG        -5.9090    2.6010   27.3500 C.3    11  GLU11       0.1161
      7  CD        -4.9280    3.6930   26.9580 C.2    11  GLU11       0.3649
      8  OE1       -4.2500    3.5510   25.9200 O.co2  11  GLU11      -0.2457
      9  OE2       -4.8450    4.7080   27.6860 O.co2  11  GLU11      -0.2457
     10  N         -4.3370   -0.5100   24.6710 N.am   12  TYR12      -0.1962
     11  CA        -3.7520   -1.7670   24.2610 C.3    12  TYR12       0.1771
     12  C         -3.0310   -2.2230   25.5090 C.2    12  TYR12       0.2620
     13  O         -2.4990   -1.3970   26.2510 O.2    12  TYR12      -0.2715
     14  CB        -2.7460   -1.5600   23.1280 C.3    12  TYR12       0.0574
     15  CG        -3.3740   -1.1720   21.8120 C.ar   12  TYR12      -0.0198
     16  CD1       -3.9140    0.1020   21.6150 C.ar   12  TYR12      -0.0009
     17  CD2       -3.4420   -2.0880   20.7620 C.ar   12  TYR12      -0.0009
     18  CE1       -4.5060    0.4510   20.3960 C.ar   12  TYR12       0.0417
     19  CE2       -4.0300   -1.7530   19.5500 C.ar   12  TYR12       0.0417
     20  CZ        -4.5580   -0.4870   19.3690 C.ar   12  TYR12       0.1957
     21  OH        -5.1290   -0.1720   18.1570 O.3    12  TYR12      -0.2866
     22  N         -3.0150   -3.5250   25.7600 N.am   13  PHE13      -0.1960
     23  CA        -2.3380   -4.0170   26.9440 C.3    13  PHE13       0.1771
     24  C         -1.3480   -5.1090   26.6270 C.2    13  PHE13       0.2620
     25  O         -1.4400   -5.7850   25.6010 O.2    13  PHE13      -0.2715
     26  CB        -3.3410   -4.5390   27.9670 C.3    13  PHE13       0.0574
     27  CG        -4.4870   -3.6180   28.1950 C.ar   13  PHE13      -0.0200
     28  CD1       -5.7380   -3.9050   27.6620 C.ar   13  PHE13      -0.0042
     29  CD2       -4.3090   -2.4350   28.8980 C.ar   13  PHE13      -0.0042
     30  CE1       -6.7940   -3.0210   27.8250 C.ar   13  PHE13      -0.0003
     31  CE2       -5.3580   -1.5470   29.0650 C.ar   13  PHE13      -0.0003
     32  CZ        -6.6020   -1.8360   28.5280 C.ar   13  PHE13      -0.0000
     33  N         -0.3940   -5.2580   27.5350 N.am   14  GLY14      -0.1940
     34  CA         0.6240   -6.2730   27.4110 C.3    14  GLY14       0.2014
     35  C          0.7710   -6.8620   28.7960 C.2    14  GLY14       0.2639
     36  O          0.1970   -6.3470   29.7520 O.2    14  GLY14      -0.2714
     37  N          1.5470   -7.9270   28.9080 N.am   15  THR15      -0.1950
     38  CA         1.7620   -8.5940   30.1780 C.3    15  THR15       0.1897
     39  C          3.2270   -8.5470   30.5810 C.2    15  THR15       0.2313
     40  O          4.1120   -8.6120   29.7300 O.2    15  THR15      -0.2863
     41  CB         1.3310  -10.0680   30.0810 C.3    15  THR15       0.1794
     42  OG1       -0.0860  -10.1270   29.8930 O.3    15  THR15      -0.2208
     43  CG2        1.7080  -10.8290   31.3370 C.3    15  THR15       0.0378
     44  N         -1.0520   -6.9900   33.9920 N.3    26  THR26      -0.1218
     45  CA        -1.4470   -6.4690   32.6920 C.3    26  THR26       0.1862
     46  C         -1.1140   -4.9880   32.8170 C.2    26  THR26       0.2287
     47  O         -1.5630   -4.3260   33.7580 O.2    26  THR26      -0.2866
     48  CB        -2.9630   -6.6190   32.4590 C.3    26  THR26       0.1770
     49  OG1       -3.3100   -8.0110   32.4510 O.3    26  THR26      -0.2211
     50  CG2       -3.3680   -5.9830   31.1300 C.3    26  THR26       0.0375
     51  N          1.7880    0.1260   27.9830 N.3    29  PHE29      -0.1241
     52  CA         3.1080    0.6510   27.6510 C.3    29  PHE29       0.1605
     53  C          2.8530    2.0910   27.2440 C.2    29  PHE29       0.2264
     54  O          2.2620    2.3670   26.2060 O.2    29  PHE29      -0.2867
     55  CB         3.7520   -0.1880   26.5490 C.3    29  PHE29       0.0534
     56  CG         4.1310   -1.5620   27.0140 C.ar   29  PHE29      -0.0203
     57  CD1        3.1850   -2.5810   27.0600 C.ar   29  PHE29      -0.0042
     58  CD2        5.4110   -1.8150   27.5030 C.ar   29  PHE29      -0.0042
     59  CE1        3.5040   -3.8420   27.5940 C.ar   29  PHE29      -0.0003
     60  CE2        5.7440   -3.0650   28.0390 C.ar   29  PHE29      -0.0003
     61  CZ         4.7830   -4.0820   28.0840 C.ar   29  PHE29      -0.0000
     62  N          9.8190   -8.8580   30.5070 N.3    89  VAL89      -0.1231
     63  CA         9.0010   -8.3950   29.4030 C.3    89  VAL89       0.1692
     64  C          9.3310   -9.2800   28.2110 C.2    89  VAL89       0.2592
     65  O         10.3350   -9.0650   27.5350 O.2    89  VAL89      -0.2718
     66  CB         9.3370   -6.9410   29.0310 C.3    89  VAL89       0.0266
     67  CG1        8.3850   -6.4500   27.9600 C.3    89  VAL89       0.0020
     68  CG2        9.2590   -6.0650   30.2550 C.3    89  VAL89       0.0020
     69  N          8.4900  -10.2830   27.9830 N.am   90  GLU90      -0.1966
     70  CA         8.6320  -11.2480   26.8870 C.3    90  GLU90       0.1733
     71  C         10.0320  -11.4500   26.3050 C.2    90  GLU90       0.2617
     72  O         10.3990  -10.8330   25.2890 O.2    90  GLU90      -0.2715
     73  CB         7.6820  -10.8810   25.7440 C.3    90  GLU90       0.0429
     74  CG         7.2170  -12.0830   24.9280 C.3    90  GLU90       0.1163
     75  CD         6.2120  -12.9430   25.6810 C.2    90  GLU90       0.3649
     76  OE1        5.0830  -12.4610   25.9140 O.co2  90  GLU90      -0.2457
     77  OE2        6.5510  -14.0940   26.0480 O.co2  90  GLU90      -0.2457
     78  N         10.8070  -12.3250   26.9340 N.am   91  GLY91      -0.1940
     79  CA        12.1410  -12.6040   26.4310 C.3    91  GLY91       0.2014
     80  C         13.2670  -11.9350   27.1890 C.2    91  GLY91       0.2638
     81  O         14.3620  -12.4730   27.2840 O.2    91  GLY91      -0.2714
     82  N         13.0020  -10.7540   27.7290 N.am   92  LEU92      -0.1977
     83  CA        14.0180  -10.0270   28.4650 C.3    92  LEU92       0.1596
     84  C         13.6840   -9.9400   29.9460 C.2    92  LEU92       0.2287
     85  O         12.5220   -9.9010   30.3270 O.2    92  LEU92      -0.2864
     86  CB        14.1630   -8.6140   27.8910 C.3    92  LEU92       0.0297
     87  CG        14.5360   -8.5170   26.4120 C.3    92  LEU92       0.0022
     88  CD1       14.5600   -7.0600   25.9940 C.3    92  LEU92       0.0001
     89  CD2       15.8910   -9.1730   26.1770 C.3    92  LEU92       0.0001
     90  N         20.5050   -5.2890   26.8940 N.3   143  LEU143     -0.1231
     91  CA        19.5250   -6.3050   26.5490 C.3   143  LEU143      0.1693
     92  C         18.9660   -6.1020   25.1500 C.2   143  LEU143      0.2592
     93  O         18.3350   -6.9960   24.6000 O.2   143  LEU143     -0.2718
     94  CB        18.3830   -6.2990   27.5710 C.3   143  LEU143      0.0284
     95  CG        18.7930   -6.5780   29.0180 C.3   143  LEU143      0.0019
     96  CD1       17.5540   -6.5870   29.9060 C.3   143  LEU143      0.0001
     97  CD2       19.5250   -7.9100   29.1000 C.3   143  LEU143      0.0001
     98  N         19.2010   -4.9280   24.5740 N.am  144  VAL144     -0.1966
     99  CA        18.7050   -4.6280   23.2340 C.3   144  VAL144      0.1727
    100  C         19.8430   -4.3470   22.2530 C.2   144  VAL144      0.2616
    101  O         20.8800   -3.7930   22.6320 O.2   144  VAL144     -0.2715
    102  CB        17.7100   -3.4360   23.2570 C.3   144  VAL144      0.0290
    103  CG1       16.4070   -3.8720   23.8980 C.3   144  VAL144      0.0023
    104  CG2       18.2980   -2.2690   24.0190 C.3   144  VAL144      0.0023
    105  N         19.6420   -4.7380   20.9970 N.am  145  ASP145     -0.1971
    106  CA        20.6520   -4.5690   19.9520 C.3   145  ASP145      0.1709
    107  C         20.7570   -3.1360   19.4290 C.2   145  ASP145      0.2293
    108  O         21.8170   -2.7150   18.9510 O.2   145  ASP145     -0.2864
    109  CB        20.3760   -5.5360   18.7900 C.3   145  ASP145      0.1436
    110  CG        20.5140   -7.0100   19.1980 C.2   145  ASP145      0.3671
    111  OD1       21.0410   -7.3030   20.2980 O.co2 145  ASP145     -0.2456
    112  OD2       20.1040   -7.8830   18.4050 O.co2 145  ASP145     -0.2456
    113  N          6.3020    0.5720   18.0070 N.3   151  VAL151     -0.1231
    114  CA         4.9470    0.1260   18.2690 C.3   151  VAL151      0.1692
    115  C          4.0680   -0.0070   17.0400 C.2   151  VAL151      0.2592
    116  O          4.0120    0.8790   16.1760 O.2   151  VAL151     -0.2718
    117  CB         4.2420    1.0790   19.2520 C.3   151  VAL151      0.0266
    118  CG1        2.8270    0.5930   19.5360 C.3   151  VAL151      0.0020
    119  CG2        5.0430    1.1730   20.5390 C.3   151  VAL151      0.0020
    120  N          3.3780   -1.1360   16.9770 N.am  152  TYR152     -0.1962
    121  CA         2.4570   -1.4030   15.8920 C.3   152  TYR152      0.1771
    122  C          1.1090   -1.6480   16.5250 C.2   152  TYR152      0.2619
    123  O          0.9520   -2.5740   17.3190 O.2   152  TYR152     -0.2715
    124  CB         2.8650   -2.6420   15.0920 C.3   152  TYR152      0.0574
    125  CG         1.7830   -3.0800   14.1270 C.ar  152  TYR152     -0.0198
    126  CD1        1.4360   -2.2860   13.0300 C.ar  152  TYR152     -0.0009
    127  CD2        1.0740   -4.2670   14.3340 C.ar  152  TYR152     -0.0009
    128  CE1        0.4090   -2.6610   12.1650 C.ar  152  TYR152      0.0417
    129  CE2        0.0490   -4.6520   13.4770 C.ar  152  TYR152      0.0417
    130  CZ        -0.2780   -3.8450   12.3960 C.ar  152  TYR152      0.1957
    131  OH        -1.2910   -4.2230   11.5480 O.3   152  TYR152     -0.2866
    132  N          0.1440   -0.8040   16.1910 N.am  153  MET153     -0.1977
    133  CA        -1.2000   -0.9510   16.7240 C.3   153  MET153      0.1605
    134  C         -2.1240   -1.2690   15.5620 C.2   153  MET153      0.2287
    135  O         -2.3260   -0.4530   14.6650 O.2   153  MET153     -0.2864
    136  CB        -1.6340    0.3260   17.4480 C.3   153  MET153      0.0413
    137  CG        -0.7630    0.6500   18.6550 C.3   153  MET153      0.0598
    138  SD        -1.2650    2.1320   19.5310 S.3   153  MET153     -0.1393
    139  CE        -0.5490    1.8360   21.1590 C.3   153  MET153      0.0692
    140  N         -7.3220   -5.9720   17.0160 N.3   158  GLY158     -0.1210
    141  CA        -5.9460   -5.5940   17.2900 C.3   158  GLY158      0.1956
    142  C         -5.0670   -6.8000   17.5580 C.2   158  GLY158      0.2611
    143  O         -4.1240   -6.7290   18.3470 O.2   158  GLY158     -0.2717
    144  N         -5.3800   -7.9040   16.8840 N.am  159  ALA159     -0.1979
    145  CA        -4.6490   -9.1630   17.0270 C.3   159  ALA159      0.1597
    146  C         -3.1280   -9.0420   16.8690 C.2   159  ALA159      0.2287
    147  O         -2.3730   -9.3250   17.8050 O.2   159  ALA159     -0.2864
    148  CB        -5.1940  -10.1840   16.0250 C.3   159  ALA159      0.0319
    149  N         -1.2080   -6.5660   16.9260 N.3   161  SER161     -0.1202
    150  CA        -0.5680   -5.4160   17.5730 C.3   161  SER161      0.2020
    151  C          0.6250   -5.8530   18.4170 C.2   161  SER161      0.2619
    152  O          0.5430   -6.8120   19.1920 O.2   161  SER161     -0.2717
    153  CB        -1.5600   -4.6640   18.4620 C.3   161  SER161      0.2103
    154  OG        -2.5930   -4.0790   17.6970 O.3   161  SER161     -0.2182
    155  N          1.7420   -5.1530   18.2700 N.am  162  GLU162     -0.1965
    156  CA         2.9060   -5.5210   19.0470 C.3   162  GLU162      0.1733
    157  C          3.8650   -4.3830   19.3210 C.2   162  GLU162      0.2616
    158  O          3.9220   -3.3910   18.5870 O.2   162  GLU162     -0.2715
    159  CB         3.6630   -6.6660   18.3640 C.3   162  GLU162      0.0429
    160  CG         4.5210   -6.2530   17.1930 C.3   162  GLU162      0.1163
    161  CD         5.3170   -7.4130   16.6190 C.2   162  GLU162      0.3649
    162  OE1        5.5500   -8.4000   17.3540 O.co2 162  GLU162     -0.2457
    163  OE2        5.7250   -7.3340   15.4390 O.co2 162  GLU162     -0.2457
    164  N          4.6130   -4.5510   20.4040 N.am  163  LEU163     -0.1963
    165  CA         5.6230   -3.6030   20.8370 C.3   163  LEU163      0.1728
    166  C          6.9500   -4.3220   20.6250 C.2   163  LEU163      0.2616
    167  O          7.0800   -5.4940   20.9670 O.2   163  LEU163     -0.2715
    168  CB         5.4420   -3.2900   22.3200 C.3   163  LEU163      0.0311
    169  CG         6.5550   -2.4780   22.9860 C.3   163  LEU163      0.0022
    170  CD1        6.4150   -1.0120   22.6410 C.3   163  LEU163      0.0001
    171  CD2        6.4700   -2.6660   24.4910 C.3   163  LEU163      0.0001
    172  N          7.9340   -3.6340   20.0650 N.am  164  ILE164     -0.1963
    173  CA         9.2210   -4.2650   19.8330 C.3   164  ILE164      0.1727
    174  C         10.3700   -3.5220   20.5050 C.2   164  ILE164      0.2616
    175  O         10.6050   -2.3500   20.2300 O.2   164  ILE164     -0.2715
    176  CB         9.5070   -4.3770   18.3220 C.3   164  ILE164      0.0290
    177  CG1        8.3960   -5.1960   17.6550 C.3   164  ILE164      0.0022
    178  CG2       10.8650   -5.0310   18.0950 C.3   164  ILE164      0.0023
    179  CD1        8.4460   -5.1970   16.1430 C.3   164  ILE164      0.0001
    180  N         11.0780   -4.2140   21.3920 N.am  165  PHE165     -0.1960
    181  CA        12.2150   -3.6300   22.0880 C.3   165  PHE165      0.1771
    182  C         13.4860   -4.0290   21.3590 C.2   165  PHE165      0.2620
    183  O         13.7260   -5.2130   21.1190 O.2   165  PHE165     -0.2715
    184  CB        12.3000   -4.1380   23.5320 C.3   165  PHE165      0.0574
    185  CG        11.3160   -3.4960   24.4740 C.ar  165  PHE165     -0.0200
    186  CD1       11.4020   -2.1430   24.7750 C.ar  165  PHE165     -0.0042
    187  CD2       10.3130   -4.2490   25.0730 C.ar  165  PHE165     -0.0042
    188  CE1       10.5050   -1.5440   25.6570 C.ar  165  PHE165     -0.0003
    189  CE2        9.4070   -3.6580   25.9610 C.ar  165  PHE165     -0.0003
    190  CZ         9.5070   -2.3000   26.2510 C.ar  165  PHE165     -0.0000
    191  N         14.2960   -3.0440   20.9940 N.am  166  GLY166     -0.1940
    192  CA        15.5420   -3.3550   20.3220 C.3   166  GLY166      0.2014
    193  C         15.5300   -3.2130   18.8200 C.2   166  GLY166      0.2639
    194  O         16.5100   -3.5470   18.1660 O.2   166  GLY166     -0.2714
    195  N         14.4280   -2.7220   18.2670 N.am  167  GLY167     -0.1939
    196  CA        14.3550   -2.5460   16.8310 C.3   167  GLY167      0.2014
    197  C         12.9410   -2.3440   16.3360 C.2   167  GLY167      0.2639
    198  O         12.0540   -1.9890   17.1140 O.2   167  GLY167     -0.2714
    199  N         12.7370   -2.5580   15.0380 N.am  168  TYR168     -0.1959
    200  CA        11.4210   -2.4290   14.4220 C.3   168  TYR168      0.1771
    201  C         11.2280   -3.5070   13.3560 C.2   168  TYR168      0.2619
    202  O         12.1890   -4.1350   12.9130 O.2   168  TYR168     -0.2715
    203  CB        11.2500   -1.0380   13.8090 C.3   168  TYR168      0.0574
    204  CG        12.2780   -0.6740   12.7630 C.ar  168  TYR168     -0.0198
    205  CD1       12.2700   -1.2740   11.5030 C.ar  168  TYR168     -0.0009
    206  CD2       13.2500    0.2880   13.0270 C.ar  168  TYR168     -0.0009
    207  CE1       13.2070   -0.9180   10.5300 C.ar  168  TYR168      0.0417
    208  CE2       14.1880    0.6490   12.0690 C.ar  168  TYR168      0.0417
    209  CZ        14.1610    0.0450   10.8220 C.ar  168  TYR168      0.1957
    210  OH        15.0770    0.4200    9.8620 O.3   168  TYR168     -0.2866
    211  N          9.9800   -3.7150   12.9550 N.am  169  ASP169     -0.1971
    212  CA         9.6380   -4.7230   11.9610 C.3   169  ASP169      0.1709
    213  C          9.1800   -4.0360   10.6790 C.2   169  ASP169      0.2293
    214  O          8.1180   -3.4160   10.6480 O.2   169  ASP169     -0.2864
    215  CB         8.5100   -5.6010   12.5040 C.3   169  ASP169      0.1436
    216  CG         8.2950   -6.8510   11.6800 C.2   169  ASP169      0.3671
    217  OD1        8.5030   -6.7910   10.4510 O.co2 169  ASP169     -0.2456
    218  OD2        7.9080   -7.8870   12.2650 O.co2 169  ASP169     -0.2456
    219  N          5.5420   -4.1050    9.0690 N.3   172  HIS172     -0.1241
    220  CA         4.4340   -3.3390    9.6320 C.3   172  HIS172      0.1621
    221  C          4.3140   -1.9590    9.0190 C.2   172  HIS172      0.2264
    222  O          3.4200   -1.1980    9.3810 O.2   172  HIS172     -0.2867
    223  CB         4.5950   -3.1790   11.1430 C.3   172  HIS172      0.0745
    224  CG         4.3750   -4.4420   11.9110 C.ar  172  HIS172      0.0817
    225  ND1        3.2550   -5.2280   11.7430 N.ar  172  HIS172     -0.2268
    226  CD2        5.1190   -5.0460   12.8660 C.ar  172  HIS172      0.1154
    227  CE1        3.3190   -6.2620   12.5620 C.ar  172  HIS172      0.1986
    228  NE2        4.4410   -6.1750   13.2550 N.ar  172  HIS172     -0.2212
@<TRIPOS>BOND
     1   221   222    2
     2   221   220    1
     3   219   220    1
     4   220   223    1
     5   210   209    1
     6   217   216   ar
     7   207   209   ar
     8   207   205   ar
     9   214   213    2
    10   213   212    1
    11   209   208   ar
    12   223   224    1
    13   205   204   ar
    14   131   130    1
    15   216   218   ar
    16   216   215    1
    17   225   224   ar
    18   225   227   ar
    19   224   226   ar
    20   212   215    1
    21   212   211    1
    22   208   206   ar
    23   128   130   ar
    24   128   126   ar
    25   130   129   ar
    26   227   228   ar
    27   204   206   ar
    28   204   203    1
    29   226   228   ar
    30   202   201    2
    31   211   201   am
    32   126   125   ar
    33   201   200    1
    34   129   127   ar
    35   203   200    1
    36   125   127   ar
    37   125   124    1
    38   200   199    1
    39   135   134    2
    40   199   197   am
    41   124   121    1
    42   163   161   ar
    43   134   133    1
    44   121   122    1
    45   121   120    1
    46   148   145    1
    47   179   177    1
    48   116   115    2
    49   132   122   am
    50   132   133    1
    51   197   196    1
    52   197   198    2
    53   122   123    2
    54   161   160    1
    55   161   162   ar
    56   133   136    1
    57   196   195    1
    58   146   145    1
    59   146   147    2
    60   144   145    1
    61   144   142   am
    62   149   150    1
    63   120   115   am
    64   140   141    1
    65   115   114    1
    66   160   159    1
    67   141   142    1
    68   136   137    1
    69   142   143    2
    70   150   151    1
    71   150   153    1
    72   177   176    1
    73   154   153    1
    74   113   114    1
    75   178   176    1
    76    21    20    1
    77   194   193    2
    78   195   193   am
    79   114   117    1
    80   155   151   am
    81   155   156    1
    82   176   173    1
    83   159   156    1
    84   112   110   ar
    85   151   152    2
    86   158   157    2
    87   137   138    1
    88   109   110    1
    89   109   106    1
    90   193   192    1
    91   108   107    2
    92   156   157    1
    93   110   111   ar
    94   117   118    1
    95   117   119    1
    96   157   164   am
    97    20    19   ar
    98    20    18   ar
    99   107   106    1
   100   138   139    1
   101    19    17   ar
   102   173   172    1
   103   173   174    1
   104   106   105    1
   105   172   166   am
   106   175   174    2
   107   192   191    1
   108    18    16   ar
   109   164   165    1
   110   174   180   am
   111   166   165    1
   112   166   167    2
   113    17    15   ar
   114   165   168    1
   115   191   182   am
   116   105   100   am
   117   183   182    2
   118   182   181    1
   119   180   181    1
   120    16    15   ar
   121    15    14    1
   122   181   184    1
   123   100   101    2
   124   100    99    1
   125   168   169    1
   126   170   169    1
   127   169   171    1
   128    14    11    1
   129    99   102    1
   130    99    98    1
   131   102   103    1
   132   102   104    1
   133   184   185    1
   134    11    10    1
   135    11    12    1
   136   185   186   ar
   137   185   187   ar
   138    98    92   am
   139    93    92    2
   140     4     3    2
   141    10     3   am
   142   186   188   ar
   143     3     2    1
   144    74    75    1
   145    74    73    1
   146   187   189   ar
   147    92    91    1
   148    72    71    2
   149     1     2    1
   150     2     5    1
   151    12    22   am
   152    12    13    2
   153    25    24    2
   154   188   190   ar
   155    75    76   ar
   156    75    77   ar
   157    73    70    1
   158    22    23    1
   159     8     7   ar
   160   189   190   ar
   161    88    87    1
   162    89    87    1
   163    54    53    2
   164    71    70    1
   165    71    78   am
   166    87    86    1
   167    79    78    1
   168    79    80    1
   169    91    90    1
   170    91    94    1
   171    55    56    1
   172    55    52    1
   173    24    23    1
   174    24    33   am
   175     5     6    1
   176    70    69    1
   177    23    26    1
   178     7     6    1
   179     7     9   ar
   180    56    57   ar
   181    56    58   ar
   182    57    59   ar
   183    80    81    2
   184    80    82   am
   185    53    52    1
   186    34    33    1
   187    34    35    1
   188    58    60   ar
   189    65    64    2
   190    94    95    1
   191    59    61   ar
   192    52    51    1
   193    28    30   ar
   194    28    27   ar
   195    82    83    1
   196    30    32   ar
   197    86    83    1
   198    67    66    1
   199    26    27    1
   200    69    64   am
   201    60    61   ar
   202    27    29   ar
   203    64    63    1
   204    83    84    1
   205    32    31   ar
   206    35    37   am
   207    35    36    2
   208    29    31   ar
   209    37    38    1
   210    95    97    1
   211    95    96    1
   212    66    63    1
   213    66    68    1
   214    63    62    1
   215    40    39    2
   216    42    41    1
   217    84    85    2
   218    41    38    1
   219    41    43    1
   220    38    39    1
   221    50    48    1
   222    49    48    1
   223    48    45    1
   224    45    46    1
   225    45    44    1
   226    46    47    2
