@<TRIPOS>MOLECULE
tmp/1u00A00.pdb
 230 222 0 0 0
SMALL
GASTEIGER

@<TRIPOS>ATOM
      1  N         32.7260   12.6410   31.0830 N.3    10  LEU10      -0.1231
      2  CA        31.7060   11.7570   30.5480 C.3    10  LEU10       0.1693
      3  C         31.6620   11.9080   29.0430 C.2    10  LEU10       0.2592
      4  O         31.6560   13.0590   28.5350 O.2    10  LEU10      -0.2718
      5  CB        30.3660   12.3400   31.1540 C.3    10  LEU10       0.0284
      6  CG        29.1390   11.5340   31.3240 C.3    10  LEU10       0.0019
      7  CD1       29.6350   10.2340   31.9740 C.3    10  LEU10       0.0001
      8  CD2       28.0980   12.2570   32.1120 C.3    10  LEU10       0.0001
      9  N         31.4510   10.8340   28.2840 N.am   11  GLU11      -0.1966
     10  CA        31.1680   10.9470   26.8490 C.3    11  GLU11       0.1733
     11  C         29.8230   11.6630   26.6380 C.2    11  GLU11       0.2617
     12  O         28.7920   11.3190   27.3250 O.2    11  GLU11      -0.2715
     13  CB        31.1010    9.5960   26.0770 C.3    11  GLU11       0.0429
     14  CG        30.7150    9.7300   24.6280 C.3    11  GLU11       0.1163
     15  CD        30.8630    8.4090   23.8050 C.2    11  GLU11       0.3649
     16  OE1       31.2020    7.3870   24.3880 O.co2  11  GLU11      -0.2457
     17  OE2       30.6660    8.5060   22.6050 O.co2  11  GLU11      -0.2457
     18  N         29.7910   12.6220   25.7400 N.am   12  THR12      -0.1937
     19  CA        28.5270   13.2220   25.2710 C.3    12  THR12       0.2028
     20  C         28.3340   13.0180   23.7620 C.2    12  THR12       0.2642
     21  O         29.2770   12.6080   23.0550 O.2    12  THR12      -0.2714
     22  CB        28.3650   14.7590   25.6210 C.3    12  THR12       0.1808
     23  OG1       29.4230   15.4480   24.9780 O.3    12  THR12      -0.2208
     24  CG2       28.4320   14.9940   27.0560 C.3    12  THR12       0.0379
     25  N         27.1260   13.2660   23.2670 N.am   13  MET13      -0.1962
     26  CA        26.8230   13.0660   21.8550 C.3    13  MET13       0.1736
     27  C         27.9050   13.6370   20.9430 C.2    13  MET13       0.2617
     28  O         28.3900   14.7430   21.1520 O.2    13  MET13      -0.2715
     29  CB        25.4460   13.6680   21.4370 C.3    13  MET13       0.0427
     30  CG        24.1880   12.9460   21.8700 C.3    13  MET13       0.0599
     31  SD        23.9440   11.2530   21.1350 S.3    13  MET13      -0.1393
     32  CE        23.9450   11.7310   19.4880 C.3    13  MET13       0.0692
     33  N         28.3040   12.8510   19.9410 N.am   14  GLY14      -0.1955
     34  CA        29.2340   13.3020   18.9200 C.3    14  GLY14       0.1869
     35  C         30.6340   12.8070   19.1910 C.2    14  GLY14       0.2309
     36  O         31.5790   13.2540   18.5360 O.2    14  GLY14      -0.2863
     37  N         32.9290   15.6390   28.0560 N.3    18  GLU18      -0.1245
     38  CA        32.5870   16.7820   28.9270 C.3    18  GLU18       0.1567
     39  C         33.2790   16.5590   30.2830 C.2    18  GLU18       0.2260
     40  O         33.0080   15.5630   30.9910 O.2    18  GLU18      -0.2867
     41  CB        31.0660   16.8070   29.1080 C.3    18  GLU18       0.0388
     42  CG        30.6330   17.9840   29.8960 C.3    18  GLU18       0.1160
     43  CD        30.7060   19.2760   29.0660 C.2    18  GLU18       0.3649
     44  OE1       30.9020   19.2510   27.8030 O.co2  18  GLU18      -0.2457
     45  OE2       30.5830   20.3150   29.6990 O.co2  18  GLU18      -0.2457
     46  N         27.0690   17.4360   36.8170 N.3    33  GLN33      -0.1231
     47  CA        26.6180   18.1960   35.6200 C.3    33  GLN33       0.1698
     48  C         25.3330   17.6060   35.1100 C.2    33  GLN33       0.2592
     49  O         25.0180   16.4500   35.4320 O.2    33  GLN33      -0.2718
     50  CB        27.6490   18.0960   34.5430 C.3    33  GLN33       0.0381
     51  CG        27.4040   18.8770   33.2830 C.3    33  GLN33       0.0905
     52  CD        28.4610   19.9090   33.1560 C.2    33  GLN33       0.2608
     53  OE1       28.1780   21.1180   33.3130 O.2    33  GLN33      -0.2717
     54  NE2       29.7390   19.4360   33.0450 N.am   33  GLN33      -0.0878
     55  N         24.5330   18.3840   34.3940 N.am   34  ASP34      -0.1960
     56  CA        23.2060   17.9790   33.9880 C.3    34  ASP34       0.1840
     57  C         23.0640   17.7790   32.4760 C.2    34  ASP34       0.2622
     58  O         23.7880   18.4020   31.6900 O.2    34  ASP34      -0.2715
     59  CB        22.1960   19.0380   34.4350 C.3    34  ASP34       0.1450
     60  CG        21.9870   19.0780   35.8790 C.2    34  ASP34       0.3671
     61  OD1       22.7280   18.4730   36.6590 O.co2  34  ASP34      -0.2456
     62  OD2       21.0990   19.7970   36.3650 O.co2  34  ASP34      -0.2456
     63  N         22.2100   16.8370   32.0590 N.am   35  PHE35      -0.1960
     64  CA        22.1590   16.3490   30.7140 C.3    35  PHE35       0.1771
     65  C         20.7510   15.9860   30.3800 C.2    35  PHE35       0.2620
     66  O         19.8600   15.9820   31.2750 O.2    35  PHE35      -0.2715
     67  CB        23.0690   15.1180   30.5650 C.3    35  PHE35       0.0574
     68  CG        24.4830   15.3940   30.8500 C.ar   35  PHE35      -0.0200
     69  CD1       25.3120   15.9020   29.8740 C.ar   35  PHE35      -0.0042
     70  CD2       24.9930   15.1430   32.1160 C.ar   35  PHE35      -0.0042
     71  CE1       26.6740   16.2140   30.1780 C.ar   35  PHE35      -0.0003
     72  CE2       26.3070   15.4430   32.4590 C.ar   35  PHE35      -0.0003
     73  CZ        27.1670   15.9470   31.4820 C.ar   35  PHE35      -0.0000
     74  N         20.5280   15.6760   29.1000 N.am   36  THR36      -0.1937
     75  CA        19.1980   15.3140   28.6500 C.3    36  THR36       0.2028
     76  C         19.2840   14.2690   27.5340 C.2    36  THR36       0.2643
     77  O         20.4010   13.8470   27.1780 O.2    36  THR36      -0.2714
     78  CB        18.3110   16.6100   28.2730 C.3    36  THR36       0.1808
     79  OG1       16.9160   16.2810   28.1120 O.3    36  THR36      -0.2208
     80  CG2       18.8080   17.3740   27.0110 C.3    36  THR36       0.0379
     81  N         18.1100   13.9170   26.9940 N.am   37  THR37      -0.1936
     82  CA        17.9580   12.9030   25.9640 C.3    37  THR37       0.2028
     83  C         18.0710   13.5650   24.5810 C.2    37  THR37       0.2642
     84  O         17.9830   14.8070   24.4280 O.2    37  THR37      -0.2714
     85  CB        16.5630   12.2830   26.0550 C.3    37  THR37       0.1808
     86  OG1       15.5920   13.3500   26.1540 O.3    37  THR37      -0.2208
     87  CG2       16.5010   11.4170   27.3050 C.3    37  THR37       0.0379
     88  N         18.3070   12.7090   23.6020 N.am   38  PHE38      -0.1959
     89  CA        18.4830   13.0590   22.2060 C.3    38  PHE38       0.1771
     90  C         17.2730   12.6880   21.3480 C.2    38  PHE38       0.2619
     91  O         17.0340   13.3650   20.3550 O.2    38  PHE38      -0.2715
     92  CB        19.7130   12.4270   21.6260 C.3    38  PHE38       0.0574
     93  CG        20.1930   13.0780   20.3630 C.ar   38  PHE38      -0.0200
     94  CD1       20.7610   14.3590   20.3870 C.ar   38  PHE38      -0.0042
     95  CD2       20.0230   12.4370   19.1520 C.ar   38  PHE38      -0.0042
     96  CE1       21.1820   14.9780   19.2240 C.ar   38  PHE38      -0.0003
     97  CE2       20.4370   13.0500   17.9660 C.ar   38  PHE38      -0.0003
     98  CZ        21.0150   14.3290   18.0140 C.ar   38  PHE38      -0.0000
     99  N         16.4800   11.7120   21.7470 N.am   39  LYS39      -0.1977
    100  CA        15.3320   11.2840   20.9480 C.3    39  LYS39       0.1596
    101  C         14.0610   11.1580   21.7450 C.2    39  LYS39       0.2287
    102  O         14.0530   10.8610   22.9790 O.2    39  LYS39      -0.2864
    103  CB        15.6480    9.9480   20.2200 C.3    39  LYS39       0.0298
    104  CG        16.0480    8.8050   21.1250 C.3    39  LYS39       0.0038
    105  CD        16.3130    7.5050   20.3920 C.3    39  LYS39       0.0206
    106  CE        16.3140    6.4260   21.4540 C.3    39  LYS39       0.1093
    107  NZ        16.9380    5.1950   21.0400 N.3    39  LYS39      -0.1314
    108  N         13.0930    8.3430   24.4990 N.3    42  GLN42      -0.1245
    109  CA        14.3240    7.6820   25.0340 C.3    42  GLN42       0.1566
    110  C         14.2010    7.2090   26.4800 C.2    42  GLN42       0.2260
    111  O         13.9190    8.0470   27.3940 O.2    42  GLN42      -0.2867
    112  CB        15.5470    8.6430   24.8500 C.3    42  GLN42       0.0367
    113  CG        16.8890    8.0270   25.1010 C.3    42  GLN42       0.0905
    114  CD        18.0130    9.0270   24.8670 C.2    42  GLN42       0.2608
    115  OE1       17.8550    9.9210   24.0340 O.2    42  GLN42      -0.2717
    116  NE2       19.1680    8.8730   25.5980 N.am   42  GLN42      -0.0878
    117  N         16.6940    5.1460   27.9660 N.3    44  ALA44      -0.1231
    118  CA        18.0090    4.8120   28.5290 C.3    44  ALA44       0.1694
    119  C         19.1320    5.7890   28.1320 C.2    44  ALA44       0.2592
    120  O         19.1020    6.3560   27.0120 O.2    44  ALA44      -0.2718
    121  CB        18.4300    3.3660   28.0860 C.3    44  ALA44       0.0304
    122  N         20.1790    5.8800   28.9590 N.am   45  MET45      -0.1965
    123  CA        21.3050    6.7160   28.5420 C.3    45  MET45       0.1736
    124  C         22.5870    6.0310   28.9600 C.2    45  MET45       0.2617
    125  O         22.6840    5.5680   30.1230 O.2    45  MET45      -0.2715
    126  CB        21.1580    8.1140   29.2070 C.3    45  MET45       0.0427
    127  CG        22.1400    9.2510   28.7980 C.3    45  MET45       0.0599
    128  SD        21.7000   10.6360   29.9390 S.3    45  MET45      -0.1393
    129  CE        20.1980   11.2060   29.1450 C.3    45  MET45       0.0692
    130  N         23.5830    6.0770   28.0880 N.am   46  SER46      -0.1936
    131  CA        24.8930    5.4810   28.3680 C.3    46  SER46       0.2055
    132  C         25.8380    6.4130   29.1050 C.2    46  SER46       0.2643
    133  O         25.9740    7.5500   28.6810 O.2    46  SER46      -0.2714
    134  CB        25.5060    5.0710   27.0250 C.3    46  SER46       0.2130
    135  OG        26.8080    4.6600   27.2480 O.3    46  SER46      -0.2179
    136  N         26.3180    6.0360   30.2930 N.am   47  ILE47      -0.1963
    137  CA        27.2080    6.8670   31.1070 C.3    47  ILE47       0.1727
    138  C         28.6380    6.3050   30.9890 C.2    47  ILE47       0.2612
    139  O         28.8980    5.2000   31.4890 O.2    47  ILE47      -0.2715
    140  CB        26.7170    6.8600   32.5620 C.3    47  ILE47       0.0290
    141  CG1       25.1940    7.0900   32.7080 C.3    47  ILE47       0.0022
    142  CG2       27.6050    7.7050   33.4810 C.3    47  ILE47       0.0023
    143  CD1       24.6910    8.4700   32.1640 C.3    47  ILE47       0.0001
    144  N         29.5400    6.9690   30.2330 N.am   48  HIS48      -0.2027
    145  CA        30.8340    6.4160   29.8590 C.3    48  HIS48       0.1342
    146  C         31.8230    7.3600   30.4820 C.3    48  HIS48       0.2040
    147  O         31.8920    8.5730   30.0060 O.3    48  HIS48      -0.2185
    148  CB        30.9320    6.4120   28.3600 C.3    48  HIS48       0.0718
    149  CG        32.2450    5.9130   27.8330 C.ar   48  HIS48       0.0817
    150  ND1       32.6600    6.0920   26.5270 N.ar   48  HIS48      -0.2268
    151  CD2       33.2450    5.2670   28.4580 C.ar   48  HIS48       0.1154
    152  CE1       33.8650    5.5560   26.3830 C.ar   48  HIS48       0.1986
    153  NE2       34.2210    5.0240   27.5370 N.ar   48  HIS48      -0.2212
    154  N         31.8350    2.0280   31.8980 N.3    65  ARG65      -0.1245
    155  CA        30.6100    2.3880   31.2420 C.3    65  ARG65       0.1563
    156  C         29.4660    1.6590   31.9400 C.2    65  ARG65       0.2260
    157  O         29.6360    0.4620   32.3380 O.2    65  ARG65      -0.2867
    158  CB        30.6200    2.0450   29.7620 C.3    65  ARG65       0.0307
    159  CG        29.3980    2.5670   28.9990 C.3    65  ARG65       0.0489
    160  CD        29.2610    2.1280   27.5370 C.3    65  ARG65       0.2205
    161  NE        30.4240    2.4400   26.7240 N.pl3  65  ARG65      -0.0865
    162  CZ        30.4370    3.2710   25.6870 C.cat  65  ARG65       0.5346
    163  NH1       29.3390    3.9560   25.3270 N.pl3  65  ARG65       0.1354
    164  NH2       31.5810    3.4590   25.0230 N.pl3  65  ARG65       0.1354
    165  N         24.6470    1.9950   32.1660 N.3    67  ALA67      -0.1245
    166  CA        23.4850    2.7490   31.6670 C.3    67  ALA67       0.1562
    167  C         22.5380    3.1160   32.7620 C.2    67  ALA67       0.2260
    168  O         22.3470    2.4010   33.6880 O.2    67  ALA67      -0.2867
    169  CB        22.7280    1.9880   30.5770 C.3    67  ALA67       0.0290
    170  N         18.6790    3.4350   33.1500 N.3    69  ARG69      -0.1245
    171  CA        17.4760    2.9080   32.4510 C.3    69  ARG69       0.1563
    172  C         16.2400    3.3050   33.2130 C.2    69  ARG69       0.2260
    173  O         16.3400    3.7950   34.3340 O.2    69  ARG69      -0.2867
    174  CB        17.5830    1.3640   32.4150 C.3    69  ARG69       0.0307
    175  CG        18.6640    0.9070   31.4890 C.3    69  ARG69       0.0489
    176  CD        18.8390   -0.6530   31.4120 C.3    69  ARG69       0.2205
    177  NE        19.7200   -0.9720   30.3230 N.pl3  69  ARG69      -0.0865
    178  CZ        20.9500   -1.4640   30.4220 C.cat  69  ARG69       0.5346
    179  NH1       21.5430   -1.7240   31.6310 N.pl3  69  ARG69       0.1354
    180  NH2       21.6350   -1.6260   29.2760 N.pl3  69  ARG69       0.1354
    181  N         14.9530   15.8950   24.6620 N.3    77  GLY77      -0.1210
    182  CA        15.3660   17.0380   25.4490 C.3    77  GLY77       0.1956
    183  C         14.5240   17.2910   26.6570 C.2    77  GLY77       0.2612
    184  O         14.7550   18.2760   27.2830 O.2    77  GLY77      -0.2717
    185  N         13.5390   16.4490   26.9680 N.am   78  GLY78      -0.1942
    186  CA        12.6080   16.7250   28.0460 C.3    78  GLY78       0.2014
    187  C         12.9900   16.1540   29.3960 C.2    78  GLY78       0.2639
    188  O         12.8090   16.8090   30.4180 O.2    78  GLY78      -0.2714
    189  N         13.6140   14.9920   29.4190 N.am   79  ALA79      -0.1963
    190  CA        14.0050   14.3890   30.7090 C.3    79  ALA79       0.1728
    191  C         15.2150   15.0680   31.2750 C.2    79  ALA79       0.2616
    192  O         16.1310   15.3750   30.5380 O.2    79  ALA79      -0.2715
    193  CB        14.2920   12.8790   30.5260 C.3    79  ALA79       0.0334
    194  N         15.2540   15.3020   32.5710 N.am   80  HIS80      -0.1973
    195  CA        16.3560   16.0330   33.1300 C.3    80  HIS80       0.1656
    196  C         17.1980   15.0100   33.9470 C.2    80  HIS80       0.2291
    197  O         16.7190   14.4670   34.9420 O.2    80  HIS80      -0.2864
    198  CB        15.8120   17.1420   34.0520 C.3    80  HIS80       0.0771
    199  CG        16.8460   18.1050   34.5750 C.ar   80  HIS80       0.0820
    200  ND1       16.5120   19.3960   34.9600 N.ar   80  HIS80      -0.2267
    201  CD2       18.1810   17.9830   34.8130 C.ar   80  HIS80       0.1154
    202  CE1       17.6080   20.0330   35.3490 C.ar   80  HIS80       0.1986
    203  NE2       18.6280   19.2050   35.2940 N.ar   80  HIS80      -0.2212
    204  N         36.0310   19.6350   17.9140 N.3   139  ARG139     -0.1245
    205  CA        34.8250   19.8510   18.6860 C.3   139  ARG139      0.1563
    206  C         33.7730   20.6470   17.8880 C.2   139  ARG139      0.2260
    207  O         32.5690   20.3290   17.9240 O.2   139  ARG139     -0.2867
    208  CB        35.0970   20.4880   20.0390 C.3   139  ARG139      0.0307
    209  CG        33.8590   20.9390   20.7940 C.3   139  ARG139      0.0489
    210  CD        34.0830   21.3660   22.2770 C.3   139  ARG139      0.2205
    211  NE        34.4380   20.2850   23.1950 N.pl3 139  ARG139     -0.0865
    212  CZ        33.5830   19.4860   23.8360 C.cat 139  ARG139      0.5346
    213  NH1       32.2910   19.5490   23.6410 N.pl3 139  ARG139      0.1354
    214  NH2       34.0290   18.5680   24.6600 N.pl3 139  ARG139      0.1354
    215  N         30.2080   19.1360   16.9970 N.3   143  GLU143     -0.1245
    216  CA        29.0110   19.7770   17.5270 C.3   143  GLU143      0.1567
    217  C         28.0610   20.1360   16.3410 C.2   143  GLU143      0.2260
    218  O         26.8210   20.1660   16.4850 O.2   143  GLU143     -0.2867
    219  CB        29.3710   21.0370   18.3280 C.3   143  GLU143      0.0388
    220  CG        29.8130   20.6050   19.7490 C.3   143  GLU143      0.1160
    221  CD        30.3140   21.7210   20.6530 C.2   143  GLU143      0.3649
    222  OE1       30.5400   22.8310   20.1610 O.co2 143  GLU143     -0.2457
    223  OE2       30.5330   21.4290   21.8650 O.co2 143  GLU143     -0.2457
    224  N         26.2920   16.9550   15.5400 N.3   146  VAL146     -0.1245
    225  CA        25.1990   16.7150   16.4830 C.3   146  VAL146      0.1561
    226  C         23.9330   17.5480   16.1460 C.2   146  VAL146      0.2260
    227  O         22.8200   17.0340   16.2310 O.2   146  VAL146     -0.2867
    228  CB        25.6500   16.8990   17.9730 C.3   146  VAL146      0.0252
    229  CG1       24.4650   16.8790   18.9040 C.3   146  VAL146      0.0019
    230  CG2       26.6450   15.7540   18.2620 C.3   146  VAL146      0.0019
@<TRIPOS>BOND
     1   224   225    1
     2   226   227    2
     3   226   225    1
     4   217   218    2
     5   217   216    1
     6   225   228    1
     7   215   216    1
     8   216   219    1
     9   206   207    2
    10   206   205    1
    11   204   205    1
    12    97    98   ar
    13    97    95   ar
    14   228   230    1
    15   228   229    1
    16    98    96   ar
    17   219   220    1
    18    36    35    2
    19   205   208    1
    20    34    35    1
    21    34    33    1
    22    95    93   ar
    23    96    94   ar
    24    32    31    1
    25   220   221    1
    26    33    27   am
    27   208   209    1
    28   222   221   ar
    29   103   100    1
    30   103   104    1
    31    91    90    2
    32    93    94   ar
    33    93    92    1
    34   105   104    1
    35   105   106    1
    36   221   223   ar
    37   209   210    1
    38    27    28    2
    39    27    26    1
    40   100   101    1
    41   100    99    1
    42   107   106    1
    43    31    30    1
    44    90    99   am
    45    90    89    1
    46    29    26    1
    47    29    30    1
    48    92    89    1
    49   101   102    2
    50    26    25    1
    51    89    88    1
    52   210   211    1
    53    17    15   ar
    54    21    20    2
    55   211   212    2
    56    25    20   am
    57    88    83   am
    58   213   212    1
    59    20    19    1
    60    15    16   ar
    61    15    14    1
    62   212   214    1
    63   115   114    2
    64    84    83    2
    65   108   109    1
    66    83    82    1
    67    14    13    1
    68   181   182    1
    69   112   109    1
    70   112   113    1
    71   114   113    1
    72   114   116   am
    73    23    22    1
    74   164   162    1
    75   109   110    1
    76    19    22    1
    77    19    18    1
    78   163   162    1
    79   182   183    1
    80    22    24    1
    81   162   161    2
    82    18    11   am
    83    82    85    1
    84    82    81    1
    85    85    86    1
    86    85    87    1
    87    13    10    1
    88   152   150   ar
    89   152   153   ar
    90   110   111    2
    91   150   149   ar
    92    11    10    1
    93    11    12    2
    94   183   185   am
    95   183   184    2
    96   161   160    1
    97    10     9    1
    98   185   186    1
    99    81    76   am
   100    80    78    1
   101   120   119    2
   102   134   135    1
   103   134   131    1
   104    77    76    2
   105    76    75    1
   106   160   159    1
   107   153   151   ar
   108    44    43   ar
   109   149   148    1
   110   149   151   ar
   111   117   118    1
   112   186   187    1
   113    37    38    1
   114   121   118    1
   115   130   131    1
   116   130   124   am
   117    79    78    1
   118   119   118    1
   119   119   122   am
   120    78    75    1
   121     9     3   am
   122   148   145    1
   123   131   132    1
   124     4     3    2
   125   123   122    1
   126   123   124    1
   127   123   126    1
   128    75    74    1
   129   133   132    2
   130   127   126    1
   131   127   128    1
   132    38    41    1
   133    38    39    1
   134   124   125    2
   135   159   158    1
   136     3     2    1
   137    43    45   ar
   138    43    42    1
   139    74    65   am
   140   132   136   am
   141    41    42    1
   142   129   128    1
   143   180   178    1
   144   187   189   am
   145   187   188    2
   146   189   190    1
   147   158   155    1
   148   145   144    1
   149   145   146    1
   150    69    71   ar
   151    69    68   ar
   152   147   146    1
   153    71    73   ar
   154   144   138   am
   155    39    40    2
   156   136   137    1
   157   177   178    2
   158   177   176    1
   159    65    64    1
   160    65    66    2
   161   178   179    1
   162   193   190    1
   163   192   191    2
   164     2     1    1
   165     2     5    1
   166    67    64    1
   167    67    68    1
   168   169   166    1
   169   190   191    1
   170    64    63    1
   171    68    70   ar
   172   138   137    1
   173   138   139    2
   174   137   140    1
   175     5     6    1
   176   155   154    1
   177   155   156    1
   178   191   194   am
   179     6     7    1
   180     6     8    1
   181   176   175    1
   182    73    72   ar
   183   175   174    1
   184   166   165    1
   185   166   167    1
   186    58    57    2
   187   156   157    2
   188    63    57   am
   189    70    72   ar
   190   143   141    1
   191   174   171    1
   192   171   170    1
   193   171   172    1
   194    57    56    1
   195   140   141    1
   196   140   142    1
   197   194   195    1
   198   167   168    2
   199    54    52   am
   200   195   196    1
   201   195   198    1
   202    52    51    1
   203    52    53    2
   204   172   173    2
   205    51    50    1
   206   196   197    2
   207    56    55    1
   208    56    59    1
   209   198   199    1
   210    55    48   am
   211    59    60    1
   212    50    47    1
   213   199   201   ar
   214   199   200   ar
   215   201   203   ar
   216   200   202   ar
   217    48    49    2
   218    48    47    1
   219   203   202   ar
   220    47    46    1
   221    60    62   ar
   222    60    61   ar
