@<TRIPOS>MOLECULE
tmp/1u08A00.pdb
 121 112 0 0 0
SMALL
GASTEIGER

@<TRIPOS>ATOM
      1  N         10.1100    6.8960   21.2880 N.3    95  GLY95      -0.1210
      2  CA        10.4720    8.2050   20.7720 C.3    95  GLY95       0.1956
      3  C         11.5850    8.0820   19.7460 C.2    95  GLY95       0.2612
      4  O         12.3330    7.0980   19.7530 O.2    95  GLY95      -0.2717
      5  N         11.6950    9.0650   18.8570 N.am   96  ALA96      -0.1965
      6  CA        12.7370    9.0460   17.8370 C.3    96  ALA96       0.1728
      7  C         14.0830    9.0830   18.5380 C.2    96  ALA96       0.2616
      8  O         15.0800    8.5700   18.0230 O.2    96  ALA96      -0.2715
      9  CB        12.5990   10.2530   16.9050 C.3    96  ALA96       0.0334
     10  N         14.0980    9.6910   19.7220 N.am   97  THR97      -0.1951
     11  CA        15.3140    9.8130   20.5140 C.3    97  THR97       0.1897
     12  C         15.9320    8.4530   20.8020 C.2    97  THR97       0.2313
     13  O         17.1460    8.2870   20.6850 O.2    97  THR97      -0.2863
     14  CB        15.0470   10.5310   21.8460 C.3    97  THR97       0.1794
     15  OG1       14.5280   11.8360   21.5810 O.3    97  THR97      -0.2208
     16  CG2       16.3340   10.6710   22.6490 C.3    97  THR97       0.0378
     17  N         17.3170    6.9110   17.6280 N.3   100  LEU100     -0.1245
     18  CA        18.5990    7.5120   17.2840 C.3   100  LEU100      0.1561
     19  C         19.7150    6.9700   18.1730 C.2   100  LEU100      0.2260
     20  O         20.8080    6.6700   17.6880 O.2   100  LEU100     -0.2867
     21  CB        18.5300    9.0360   17.4180 C.3   100  LEU100      0.0270
     22  CG        17.7120    9.7790   16.3560 C.3   100  LEU100      0.0019
     23  CD1       17.4410   11.2140   16.8280 C.3   100  LEU100      0.0001
     24  CD2       18.4620    9.7610   15.0060 C.3   100  LEU100      0.0001
     25  N         20.8460   19.1320   15.9960 N.3   121  TYR121     -0.1241
     26  CA        19.9780   18.7110   17.0860 C.3   121  TYR121      0.1605
     27  C         21.0070   18.2080   18.0990 C.2   121  TYR121      0.2264
     28  O         21.9040   17.4520   17.7390 O.2   121  TYR121     -0.2867
     29  CB        19.0700   17.5670   16.6250 C.3   121  TYR121      0.0534
     30  CG        18.0550   17.1560   17.6620 C.ar  121  TYR121     -0.0201
     31  CD1       17.1710   18.0890   18.2010 C.ar  121  TYR121     -0.0009
     32  CD2       17.9880   15.8380   18.1200 C.ar  121  TYR121     -0.0009
     33  CE1       16.2470   17.7230   19.1770 C.ar  121  TYR121      0.0417
     34  CE2       17.0650   15.4580   19.0960 C.ar  121  TYR121      0.0417
     35  CZ        16.1990   16.4020   19.6200 C.ar  121  TYR121      0.1957
     36  OH        15.2790   16.0420   20.5790 O.3   121  TYR121     -0.2866
     37  N         19.8490   15.2980    9.1420 N.3   166  ASN166     -0.1240
     38  CA        18.5190   15.5670    9.6550 C.3   166  ASN166      0.1653
     39  C         17.7300   16.3580    8.6040 C.2   166  ASN166      0.2266
     40  O         18.0760   17.4930    8.2860 O.2   166  ASN166     -0.2867
     41  CB        18.6810   16.3650   10.9530 C.3   166  ASN166      0.1155
     42  CG        17.3760   16.7460   11.5830 C.2   166  ASN166      0.2627
     43  OD1       17.2750   17.8050   12.1990 O.2   166  ASN166     -0.2716
     44  ND2       16.3710   15.8870   11.4590 N.am  166  ASN166     -0.0877
     45  N         16.3340   20.6440   11.6370 N.3   170  ASN170     -0.1240
     46  CA        16.1220   21.4160   12.8500 C.3   170  ASN170      0.1653
     47  C         17.5750   21.6890   13.2190 C.2   170  ASN170      0.2266
     48  O         18.3760   20.7560   13.2940 O.2   170  ASN170     -0.2867
     49  CB        15.4620   20.5530   13.9340 C.3   170  ASN170      0.1155
     50  CG        15.4260   21.2340   15.2980 C.2   170  ASN170      0.2627
     51  OD1       15.8020   22.3960   15.4420 O.2   170  ASN170     -0.2716
     52  ND2       14.9650   20.5020   16.3100 N.am  170  ASN170     -0.0877
     53  N         17.6040   11.4400   10.1130 N.3   198  ASP198     -0.1239
     54  CA        16.6300   11.8930   11.0950 C.3   198  ASP198      0.1674
     55  C         15.5260   12.6010   10.3150 C.2   198  ASP198      0.2266
     56  O         15.6530   13.7710    9.9500 O.2   198  ASP198     -0.2867
     57  CB        17.2890   12.8570   12.0890 C.3   198  ASP198      0.1410
     58  CG        16.3540   13.2710   13.2050 C.2   198  ASP198      0.3668
     59  OD1       15.1270   13.1850   13.0090 O.co2 198  ASP198     -0.2456
     60  OD2       16.8380   13.6970   14.2730 O.co2 198  ASP198     -0.2456
     61  N         12.2160   13.0020   11.4030 N.3   200  VAL200     -0.1231
     62  CA        11.0590   13.2270   12.2730 C.3   200  VAL200      0.1692
     63  C         10.0770   14.2650   11.7000 C.2   200  VAL200      0.2592
     64  O          8.8740   14.1810   11.9310 O.2   200  VAL200     -0.2718
     65  CB        11.4900   13.6570   13.7110 C.3   200  VAL200      0.0266
     66  CG1       12.2830   12.5320   14.3690 C.3   200  VAL200      0.0020
     67  CG2       12.3170   14.9270   13.6670 C.3   200  VAL200      0.0020
     68  N         10.5840   15.2340   10.9450 N.am  201  TYR201     -0.1976
     69  CA         9.7220   16.2570   10.3500 C.3   201  TYR201      0.1639
     70  C          9.3590   15.9430    8.8940 C.2   201  TYR201      0.2290
     71  O          9.0790   16.8500    8.1190 O.2   201  TYR201     -0.2864
     72  CB        10.4100   17.6240   10.4130 C.3   201  TYR201      0.0560
     73  CG        10.6700   18.1060   11.8210 C.ar  201  TYR201     -0.0198
     74  CD1        9.6280   18.5740   12.6230 C.ar  201  TYR201     -0.0009
     75  CD2       11.9490   18.0550   12.3670 C.ar  201  TYR201     -0.0009
     76  CE1        9.8580   18.9740   13.9380 C.ar  201  TYR201      0.0417
     77  CE2       12.1870   18.4520   13.6730 C.ar  201  TYR201      0.0417
     78  CZ        11.1410   18.9070   14.4560 C.ar  201  TYR201      0.1957
     79  OH        11.3770   19.2730   15.7630 O.3   201  TYR201     -0.2866
     80  N          9.1700   10.0360   14.1110 N.3   229  SER229     -0.1217
     81  CA         8.6040   10.3560   15.4070 C.3   229  SER229      0.1889
     82  C          7.1110   10.6250   15.2740 C.2   229  SER229      0.2288
     83  O          6.7000   11.5390   14.5660 O.2   229  SER229     -0.2866
     84  CB         9.2980   11.5850   15.9960 C.3   229  SER229      0.2089
     85  OG         8.6030   12.0650   17.1340 O.3   229  SER229     -0.2183
     86  N          5.3090   11.4940   17.7850 N.3   231  GLY231     -0.1210
     87  CA         5.0510   12.6370   18.6450 C.3   231  GLY231      0.1956
     88  C          5.0980   13.9500   17.8890 C.2   231  GLY231      0.2611
     89  O          4.3680   14.8970   18.1930 O.2   231  GLY231     -0.2717
     90  N          5.9770   14.0090   16.8980 N.am  232  LYS232     -0.1979
     91  CA         6.1250   15.2000   16.0880 C.3   232  LYS232      0.1596
     92  C          4.9820   15.3060   15.0900 C.2   232  LYS232      0.2287
     93  O          4.4350   16.3860   14.8790 O.2   232  LYS232     -0.2864
     94  CB         7.4540   15.1600   15.3330 C.3   232  LYS232      0.0298
     95  CG         8.6710   15.0430   16.2260 C.3   232  LYS232      0.0038
     96  CD         8.7200   16.1780   17.2060 C.3   232  LYS232      0.0206
     97  CE         9.9050   17.0500   16.9330 C.3   232  LYS232      0.1093
     98  NZ        10.1000   17.9400   18.0960 N.3   232  LYS232     -0.1314
     99  N          4.0770   15.4900   21.6720 N.3   237  THR237     -0.1218
    100  CA         5.4660   15.1450   21.9330 C.3   237  THR237      0.1862
    101  C          5.6890   14.3210   23.1950 C.2   237  THR237      0.2287
    102  O          6.6930   13.6300   23.3070 O.2   237  THR237     -0.2866
    103  CB         6.3350   16.4200   22.0070 C.3   237  THR237      0.1770
    104  OG1        5.8370   17.2900   23.0330 O.3   237  THR237     -0.2211
    105  CG2        6.3180   17.1490   20.6520 C.3   237  THR237      0.0375
    106  N          6.0010   10.0580   23.2790 N.3   240  LYS240     -0.1231
    107  CA         7.2480    9.3540   23.0360 C.3   240  LYS240      0.1693
    108  C          7.1430    8.0030   22.3260 C.2   240  LYS240      0.2591
    109  O          7.3970    6.9550   22.9240 O.2   240  LYS240     -0.2718
    110  CB         7.9820    9.1660   24.3710 C.3   240  LYS240      0.0285
    111  CG         8.6970   10.4070   24.8780 C.3   240  LYS240      0.0035
    112  CD         9.8420   10.7610   23.9490 C.3   240  LYS240      0.0206
    113  CE        10.5930   11.9960   24.4060 C.3   240  LYS240      0.1093
    114  NZ        11.7580   12.2640   23.5120 N.3   240  LYS240     -0.1314
    115  N          6.7480    8.0290   21.0590 N.am  241  VAL241     -0.1980
    116  CA         6.6740    6.8130   20.2700 C.3   241  VAL241      0.1595
    117  C          7.2490    7.1280   18.8910 C.2   241  VAL241      0.2287
    118  O          6.7340    7.9830   18.1750 O.2   241  VAL241     -0.2864
    119  CB         5.2340    6.2940   20.1040 C.3   241  VAL241      0.0276
    120  CG1        5.2310    5.0990   19.1670 C.3   241  VAL241      0.0022
    121  CG2        4.6590    5.8920   21.4490 C.3   241  VAL241      0.0022
@<TRIPOS>BOND
     1    71    70    2
     2    40    39    2
     3    39    38    1
     4    70    69    1
     5    37    38    1
     6    38    41    1
     7    56    55    2
     8    53    54    1
     9    55    54    1
    10    69    72    1
    11    69    68    1
    12    72    73    1
    13    68    63   am
    14    41    42    1
    15    54    57    1
    16    61    62    1
    17    44    42   am
    18    42    43    2
    19    45    46    1
    20    63    64    2
    21    63    62    1
    22    73    75   ar
    23    73    74   ar
    24    57    58    1
    25    62    65    1
    26    75    77   ar
    27    74    76   ar
    28    46    47    1
    29    46    49    1
    30    59    58   ar
    31    58    60   ar
    32    47    48    2
    33    67    65    1
    34    77    78   ar
    35    65    66    1
    36    49    50    1
    37    76    78   ar
    38    80    81    1
    39    78    79    1
    40    83    82    2
    41    93    92    2
    42    24    22    1
    43    92    91    1
    44    82    81    1
    45    50    51    2
    46    50    52   am
    47    94    91    1
    48    94    95    1
    49    81    84    1
    50    84    85    1
    51    25    26    1
    52    91    90    1
    53    95    96    1
    54    22    23    1
    55    22    21    1
    56    29    26    1
    57    29    30    1
    58    90    88   am
    59     9     6    1
    60    97    96    1
    61    97    98    1
    62    26    27    1
    63    18    21    1
    64    18    17    1
    65    18    19    1
    66    30    32   ar
    67    30    31   ar
    68    20    19    2
    69    28    27    2
    70    86    87    1
    71     6     7    1
    72     6     5    1
    73    88    89    2
    74    88    87    1
    75     8     7    2
    76    32    34   ar
    77   118   117    2
    78    31    33   ar
    79     7    10   am
    80     5     3   am
    81   117   116    1
    82    34    35   ar
    83   120   119    1
    84    33    35   ar
    85    35    36    1
    86    10    11    1
    87     3     4    2
    88     3     2    1
    89   119   116    1
    90   119   121    1
    91   116   115    1
    92    11    12    1
    93    11    14    1
    94   105   103    1
    95    13    12    2
    96     2     1    1
    97   115   108   am
    98    15    14    1
    99    99   100    1
   100    14    16    1
   101   100   103    1
   102   100   101    1
   103   103   104    1
   104   108   109    2
   105   108   107    1
   106   107   106    1
   107   107   110    1
   108   101   102    2
   109   114   113    1
   110   112   113    1
   111   112   111    1
   112   110   111    1
