@<TRIPOS>MOLECULE
tmp/1u0aB00.pdb
 212 205 0 0 0
SMALL
GASTEIGER

@<TRIPOS>ATOM
      1  N          3.8180   33.8320   81.4430 N.3    24  TYR24      -0.1227
      2  CA         3.5190   32.6240   82.1530 C.3    24  TYR24       0.1736
      3  C          4.4640   32.5250   83.3340 C.2    24  TYR24       0.2596
      4  O          5.4720   33.2380   83.4030 O.2    24  TYR24      -0.2718
      5  CB         3.6880   31.3960   81.2410 C.3    24  TYR24       0.0548
      6  CG         5.1240   31.1370   80.8400 C.ar   24  TYR24      -0.0200
      7  CD1        5.7070   31.8300   79.7890 C.ar   24  TYR24      -0.0009
      8  CD2        5.8900   30.1850   81.5120 C.ar   24  TYR24      -0.0009
      9  CE1        7.0340   31.6090   79.4160 C.ar   24  TYR24       0.0417
     10  CE2        7.2270   29.9440   81.1530 C.ar   24  TYR24       0.0417
     11  CZ         7.7890   30.6520   80.1060 C.ar   24  TYR24       0.1957
     12  OH         9.1030   30.4380   79.7340 O.3    24  TYR24      -0.2866
     13  N          4.1150   31.6420   84.2480 N.am   25  SER25      -0.1938
     14  CA         4.9390   31.2870   85.3900 C.3    25  SER25       0.2055
     15  C          5.4310   29.8540   85.2200 C.2    25  SER25       0.2643
     16  O          4.7050   28.9880   84.6700 O.2    25  SER25      -0.2714
     17  CB         4.1100   31.3240   86.6700 C.3    25  SER25       0.2130
     18  OG         4.8660   30.8480   87.7610 O.3    25  SER25      -0.2179
     19  N          6.6380   29.5760   85.6880 N.am   26  ASN26      -0.1971
     20  CA         7.0960   28.1870   85.7260 C.3    26  ASN26       0.1688
     21  C          6.2410   27.3460   86.6560 C.2    26  ASN26       0.2292
     22  O          6.2120   26.1140   86.5480 O.2    26  ASN26      -0.2864
     23  CB         8.5460   28.0860   86.1720 C.3    26  ASN26       0.1181
     24  CG         9.5500   28.2310   85.0190 C.2    26  ASN26       0.2629
     25  OD1        9.1970   28.5540   83.9100 O.2    26  ASN26      -0.2716
     26  ND2       10.8340   28.0060   85.3240 N.am   26  ASN26      -0.0877
     27  N          8.3840   28.3030   91.6500 N.3    30  PHE30      -0.1241
     28  CA         8.5220   29.6430   91.0910 C.3    30  PHE30       0.1605
     29  C          7.2720   30.4720   91.3590 C.2    30  PHE30       0.2264
     30  O          6.2690   30.3520   90.6800 O.2    30  PHE30      -0.2867
     31  CB         8.7600   29.5940   89.5820 C.3    30  PHE30       0.0534
     32  CG        10.0640   28.9460   89.1840 C.ar   30  PHE30      -0.0203
     33  CD1       10.1680   27.5690   89.0840 C.ar   30  PHE30      -0.0042
     34  CD2       11.1640   29.7260   88.8670 C.ar   30  PHE30      -0.0042
     35  CE1       11.3420   26.9760   88.6930 C.ar   30  PHE30      -0.0003
     36  CE2       12.3600   29.1300   88.4480 C.ar   30  PHE30      -0.0003
     37  CZ        12.4500   27.7760   88.3820 C.ar   30  PHE30      -0.0000
     38  N         13.3920   36.1240   82.8820 N.3    63  GLU63      -0.1245
     39  CA        14.2310   35.0590   82.3520 C.3    63  GLU63       0.1567
     40  C         14.5860   35.3990   80.8980 C.2    63  GLU63       0.2260
     41  O         13.7040   35.6750   80.0980 O.2    63  GLU63      -0.2867
     42  CB        13.5020   33.7180   82.3890 C.3    63  GLU63       0.0388
     43  CG        14.3270   32.5510   81.8680 C.3    63  GLU63       0.1160
     44  CD        13.6000   31.2390   82.0610 C.2    63  GLU63       0.3649
     45  OE1       12.7830   30.8300   81.1830 O.co2  63  GLU63      -0.2457
     46  OE2       13.8000   30.6310   83.1120 O.co2  63  GLU63      -0.2457
     47  N         16.6000   33.8940   77.6490 N.3    65  ARG65      -0.1245
     48  CA        17.0100   32.5800   77.1470 C.3    65  ARG65       0.1563
     49  C         17.5400   32.6330   75.7050 C.2    65  ARG65       0.2260
     50  O         17.0210   33.3620   74.8790 O.2    65  ARG65      -0.2867
     51  CB        15.8200   31.6360   77.2250 C.3    65  ARG65       0.0307
     52  CG        14.5190   32.3480   77.4710 C.3    65  ARG65       0.0489
     53  CD        13.4250   31.4850   78.0530 C.3    65  ARG65       0.2205
     54  NE        13.0910   30.3420   77.2080 N.pl3  65  ARG65      -0.0865
     55  CZ        12.7940   29.1300   77.6680 C.cat  65  ARG65       0.5346
     56  NH1       12.7080   28.9100   78.9740 N.pl3  65  ARG65       0.1354
     57  NH2       12.5550   28.1310   76.8220 N.pl3  65  ARG65       0.1354
     58  N         16.5080   33.6200   94.0010 N.3    88  VAL88      -0.1245
     59  CA        17.6460   33.0640   93.2750 C.3    88  VAL88       0.1561
     60  C         17.9440   33.9270   92.0420 C.2    88  VAL88       0.2260
     61  O         17.0210   34.3740   91.3620 O.2    88  VAL88      -0.2867
     62  CB        17.3500   31.6370   92.7840 C.3    88  VAL88       0.0252
     63  CG1       18.4840   31.1450   91.8680 C.3    88  VAL88       0.0019
     64  CG2       17.0950   30.7090   93.9550 C.3    88  VAL88       0.0019
     65  N         20.5350   33.4930   88.5890 N.3    90  SER90      -0.1217
     66  CA        21.1920   32.3640   87.9680 C.3    90  SER90       0.1889
     67  C         21.8130   32.5870   86.5900 C.2    90  SER90       0.2288
     68  O         21.5750   33.5760   85.9350 O.2    90  SER90      -0.2866
     69  CB        20.1450   31.2690   87.7940 C.3    90  SER90       0.2089
     70  OG        19.2610   31.6270   86.7380 O.3    90  SER90      -0.2183
     71  N         22.6680   29.4180   83.6110 N.3    92  PHE92      -0.1241
     72  CA        22.6130   27.9810   83.4360 C.3    92  PHE92       0.1605
     73  C         22.2930   27.5620   82.0140 C.2    92  PHE92       0.2264
     74  O         21.8280   28.3760   81.1940 O.2    92  PHE92      -0.2867
     75  CB        21.5850   27.3630   84.3900 C.3    92  PHE92       0.0534
     76  CG        20.1770   27.8140   84.1750 C.ar   92  PHE92      -0.0203
     77  CD1       19.7570   29.0760   84.5750 C.ar   92  PHE92      -0.0042
     78  CD2       19.2270   26.9430   83.6470 C.ar   92  PHE92      -0.0042
     79  CE1       18.4380   29.4780   84.4160 C.ar   92  PHE92      -0.0003
     80  CE2       17.9150   27.3370   83.4850 C.ar   92  PHE92      -0.0003
     81  CZ        17.5050   28.6040   83.8560 C.ar   92  PHE92      -0.0000
     82  N         19.9160   24.7370   79.9300 N.3    94  TYR94      -0.1241
     83  CA        18.7220   23.9600   80.2200 C.3    94  TYR94       0.1605
     84  C         18.0150   23.4480   78.9950 C.2    94  TYR94       0.2264
     85  O         17.8860   24.1420   77.9880 O.2    94  TYR94      -0.2867
     86  CB        17.6870   24.7370   81.0670 C.3    94  TYR94       0.0534
     87  CG        16.4740   23.8990   81.3800 C.ar   94  TYR94      -0.0201
     88  CD1       16.4160   23.0970   82.5090 C.ar   94  TYR94      -0.0009
     89  CD2       15.3870   23.8630   80.5120 C.ar   94  TYR94      -0.0009
     90  CE1       15.3310   22.2790   82.7710 C.ar   94  TYR94       0.0417
     91  CE2       14.3030   23.0450   80.7580 C.ar   94  TYR94       0.0417
     92  CZ        14.2720   22.2440   81.8780 C.ar   94  TYR94       0.1957
     93  OH        13.1890   21.4390   82.1070 O.3    94  TYR94      -0.2866
     94  N          9.6190   20.1780   78.2350 N.3    98  ALA98      -0.1231
     95  CA         8.9300   21.2470   77.5340 C.3    98  ALA98       0.1694
     96  C          9.6100   21.5880   76.2250 C.2    98  ALA98       0.2592
     97  O          9.0200   22.2400   75.3700 O.2    98  ALA98      -0.2718
     98  CB         8.8090   22.4900   78.4240 C.3    98  ALA98       0.0304
     99  N         10.8620   21.1770   76.0820 N.am   99  HIS99      -0.1976
    100  CA        11.6650   21.4090   74.8910 C.3    99  HIS99       0.1656
    101  C         11.6310   20.1490   74.0160 C.2    99  HIS99       0.2291
    102  O         12.2390   20.1130   72.9530 O.2    99  HIS99      -0.2864
    103  CB        13.1370   21.6300   75.2470 C.3    99  HIS99       0.0771
    104  CG        13.3860   22.8140   76.1360 C.ar   99  HIS99       0.0820
    105  ND1       14.4160   23.7020   75.9050 N.ar   99  HIS99      -0.2267
    106  CD2       12.7690   23.2310   77.2660 C.ar   99  HIS99       0.1154
    107  CE1       14.4130   24.6190   76.8660 C.ar   99  HIS99       0.1986
    108  NE2       13.3560   24.4170   77.6310 N.ar   99  HIS99      -0.2212
    109  N         15.7160   15.9190   80.6550 N.3   103  TRP103     -0.1241
    110  CA        16.1950   17.0570   81.4470 C.3   103  TRP103      0.1605
    111  C         17.7040   17.0050   81.7080 C.2   103  TRP103      0.2264
    112  O         18.1660   16.2230   82.5320 O.2   103  TRP103     -0.2867
    113  CB        15.4300   17.0580   82.7540 C.3   103  TRP103      0.0550
    114  CG        15.7960   18.1100   83.7300 C.ar  103  TRP103      0.0003
    115  CD1       16.6220   19.1440   83.5440 C.ar  103  TRP103      0.0946
    116  CD2       15.2940   18.2230   85.0610 C.ar  103  TRP103      0.0152
    117  NE1       16.6840   19.9230   84.6740 N.ar  103  TRP103     -0.2442
    118  CE2       15.8700   19.3730   85.6270 C.ar  103  TRP103      0.0810
    119  CE3       14.4400   17.4510   85.8360 C.ar  103  TRP103      0.0012
    120  CZ2       15.6140   19.7740   86.9240 C.ar  103  TRP103      0.0191
    121  CZ3       14.1700   17.8610   87.1320 C.ar  103  TRP103      0.0001
    122  CH2       14.7710   19.0030   87.6650 C.ar  103  TRP103      0.0015
    123  N         20.9650   19.7720   82.3600 N.3   105  GLN105     -0.1245
    124  CA        21.1550   21.1520   82.7900 C.3   105  GLN105      0.1566
    125  C         22.4710   21.2780   83.5330 C.2   105  GLN105      0.2260
    126  O         22.9250   20.3300   84.1720 O.2   105  GLN105     -0.2867
    127  CB        19.9710   21.5330   83.6990 C.3   105  GLN105      0.0367
    128  CG        20.1980   22.5380   84.7890 C.3   105  GLN105      0.0905
    129  CD        19.1120   22.4500   85.8430 C.2   105  GLN105      0.2608
    130  OE1       17.9330   22.4150   85.5150 O.2   105  GLN105     -0.2717
    131  NE2       19.5080   22.3820   87.1180 N.am  105  GLN105     -0.0878
    132  N         24.0570   24.2680   86.1050 N.3   107  ASP107     -0.1239
    133  CA        23.5980   25.5240   86.6630 C.3   107  ASP107      0.1674
    134  C         24.4720   26.1550   87.7360 C.2   107  ASP107      0.2266
    135  O         25.0850   25.4790   88.5540 O.2   107  ASP107     -0.2867
    136  CB        22.1450   25.4230   87.1680 C.3   107  ASP107      0.1410
    137  CG        21.9200   24.3270   88.1970 C.2   107  ASP107      0.3668
    138  OD1       22.1720   23.1260   87.9310 O.co2 107  ASP107     -0.2456
    139  OD2       21.3770   24.5770   89.2870 O.co2 107  ASP107     -0.2456
    140  N         23.7190   28.9310   90.6190 N.3   109  GLN109     -0.1245
    141  CA        22.6850   29.6740   91.3010 C.3   109  GLN109      0.1566
    142  C         23.2610   30.4120   92.4890 C.2   109  GLN109      0.2260
    143  O         24.0230   29.8280   93.2530 O.2   109  GLN109     -0.2867
    144  CB        21.5930   28.7430   91.8150 C.3   109  GLN109      0.0367
    145  CG        20.7550   28.1140   90.7080 C.3   109  GLN109      0.0905
    146  CD        19.6470   27.2410   91.2620 C.2   109  GLN109      0.2608
    147  OE1       18.4650   27.5680   91.1440 O.2   109  GLN109     -0.2717
    148  NE2       20.0260   26.1350   91.8830 N.am  109  GLN109     -0.0878
    149  N         25.4180   22.8510   90.2550 N.3   121  ASN121     -0.1240
    150  CA        24.7230   21.5960   90.1690 C.3   121  ASN121      0.1653
    151  C         24.6070   21.2090   88.6840 C.2   121  ASN121      0.2266
    152  O         24.9830   21.9810   87.8010 O.2   121  ASN121     -0.2867
    153  CB        23.3340   21.6980   90.8300 C.3   121  ASN121      0.1155
    154  CG        22.7060   20.3280   91.1520 C.2   121  ASN121      0.2627
    155  OD1       23.3630   19.2630   91.0800 O.2   121  ASN121     -0.2716
    156  ND2       21.4150   20.3560   91.5030 N.am  121  ASN121     -0.0877
    157  N         22.0480   18.2770   86.0750 N.3   123  TYR123     -0.1241
    158  CA        21.1400   17.1590   85.9340 C.3   123  TYR123      0.1605
    159  C         21.3860   16.4670   84.6160 C.2   123  TYR123      0.2264
    160  O         21.6570   17.1390   83.5940 O.2   123  TYR123     -0.2867
    161  CB        19.7200   17.6470   85.8570 C.3   123  TYR123      0.0534
    162  CG        19.0740   17.9880   87.1600 C.ar  123  TYR123     -0.0201
    163  CD1       19.4460   19.1170   87.8470 C.ar  123  TYR123     -0.0009
    164  CD2       18.0510   17.2080   87.6680 C.ar  123  TYR123     -0.0009
    165  CE1       18.8330   19.4620   89.0440 C.ar  123  TYR123      0.0417
    166  CE2       17.4340   17.5470   88.8560 C.ar  123  TYR123      0.0417
    167  CZ        17.8330   18.6840   89.5290 C.ar  123  TYR123      0.1957
    168  OH        17.2240   19.0470   90.7120 O.3   123  TYR123     -0.2866
    169  N         20.4870   30.2440   79.7190 N.3   180  MET180     -0.1245
    170  CA        19.4620   31.0320   80.3980 C.3   180  MET180      0.1570
    171  C         20.0150   31.7460   81.6190 C.2   180  MET180      0.2261
    172  O         20.9610   31.3000   82.2500 O.2   180  MET180     -0.2867
    173  CB        18.2790   30.1860   80.8360 C.3   180  MET180      0.0387
    174  CG        17.6680   29.3030   79.7560 C.3   180  MET180      0.0595
    175  SD        16.2060   28.4930   80.2990 S.3   180  MET180     -0.1393
    176  CE        15.8340   27.4800   78.8630 C.3   180  MET180      0.0692
    177  N         18.0660   33.8380   84.9800 N.3   182  ASN182     -0.1240
    178  CA        16.7950   34.2700   85.5430 C.3   182  ASN182      0.1653
    179  C         16.9570   34.7680   86.9720 C.2   182  ASN182      0.2266
    180  O         18.0050   34.6020   87.5910 O.2   182  ASN182     -0.2867
    181  CB        15.6440   33.2360   85.4170 C.3   182  ASN182      0.1155
    182  CG        15.9100   31.8970   86.1370 C.2   182  ASN182      0.2627
    183  OD1       16.6690   31.8170   87.0950 O.2   182  ASN182     -0.2716
    184  ND2       15.2690   30.8150   85.6410 N.am  182  ASN182     -0.0877
    185  N         14.1790   35.0590   90.3900 N.3   184  TRP184     -0.1241
    186  CA        12.8560   34.6490   90.8260 C.3   184  TRP184      0.1605
    187  C         12.8030   34.4450   92.3370 C.2   184  TRP184      0.2264
    188  O         13.8270   34.2230   92.9740 O.2   184  TRP184     -0.2867
    189  CB        12.4180   33.3650   90.1020 C.3   184  TRP184      0.0550
    190  CG        13.3950   32.2360   90.1780 C.ar  184  TRP184      0.0003
    191  CD1       14.5070   32.0470   89.4030 C.ar  184  TRP184      0.0946
    192  CD2       13.3590   31.1470   91.0870 C.ar  184  TRP184      0.0152
    193  NE1       15.1690   30.9080   89.7940 N.ar  184  TRP184     -0.2442
    194  CE2       14.4700   30.3240   90.8120 C.ar  184  TRP184      0.0810
    195  CE3       12.4790   30.7550   92.0930 C.ar  184  TRP184      0.0012
    196  CZ2       14.7120   29.1620   91.5000 C.ar  184  TRP184      0.0191
    197  CZ3       12.7140   29.5790   92.7820 C.ar  184  TRP184      0.0001
    198  CH2       13.8360   28.8050   92.4990 C.ar  184  TRP184      0.0015
    199  N         15.5720   25.8460  101.9480 N.3   192  TRP192     -0.1241
    200  CA        16.6520   26.0440  100.9860 C.3   192  TRP192      0.1605
    201  C         16.9640   27.5270  100.7040 C.2   192  TRP192      0.2264
    202  O         18.1200   27.9650  100.7660 O.2   192  TRP192     -0.2867
    203  CB        16.3050   25.2860   99.6990 C.3   192  TRP192      0.0550
    204  CG        17.2700   25.4640   98.5800 C.ar  192  TRP192      0.0003
    205  CD1       18.6230   25.3630   98.6290 C.ar  192  TRP192      0.0946
    206  CD2       16.9390   25.7610   97.2310 C.ar  192  TRP192      0.0152
    207  NE1       19.1570   25.5980   97.3890 N.ar  192  TRP192     -0.2442
    208  CE2       18.1370   25.8360   96.5080 C.ar  192  TRP192      0.0810
    209  CE3       15.7430   25.9580   96.5620 C.ar  192  TRP192      0.0012
    210  CZ2       18.1730   26.1180   95.1590 C.ar  192  TRP192      0.0191
    211  CZ3       15.7740   26.2510   95.2170 C.ar  192  TRP192      0.0001
    212  CH2       16.9850   26.3350   94.5350 C.ar  192  TRP192      0.0015
@<TRIPOS>BOND
     1   102   101    2
     2   101   100    1
     3    50    49    2
     4   100   103    1
     5   100    99    1
     6   103   104    1
     7    97    96    2
     8    49    48    1
     9   105   104   ar
    10   105   107   ar
    11    99    96   am
    12   104   106   ar
    13    96    95    1
    14    57    55    1
    15   107   108   ar
    16    48    51    1
    17    48    47    1
    18    54    55    2
    19    54    53    1
    20    51    52    1
    21   106   108   ar
    22    52    53    1
    23    95    94    1
    24    95    98    1
    25    55    56    1
    26    85    84    2
    27   176   175    1
    28    84    83    1
    29     9     7   ar
    30     9    11   ar
    31   169   170    1
    32    12    11    1
    33   174   175    1
    34   174   173    1
    35     7     6   ar
    36    82    83    1
    37    41    40    2
    38    11    10   ar
    39    83    86    1
    40   170   173    1
    41   170   171    1
    42    89    91   ar
    43    89    87   ar
    44   109   110    1
    45    91    92   ar
    46     6     5    1
    47     6     8   ar
    48    40    39    1
    49    86    87    1
    50    10     8   ar
    51    45    44   ar
    52    74    73    2
    53     5     2    1
    54    87    88   ar
    55     1     2    1
    56   110   111    1
    57   110   113    1
    58   171   172    2
    59   111   112    2
    60    43    44    1
    61    43    42    1
    62    92    93    1
    63    92    90   ar
    64    73    72    1
    65    44    46   ar
    66     2     3    1
    67    39    42    1
    68    39    38    1
    69   123   124    1
    70    88    90   ar
    71   113   114    1
    72   124   125    1
    73   124   127    1
    74     3     4    2
    75     3    13   am
    76    72    71    1
    77    72    75    1
    78    80    78   ar
    79    80    81   ar
    80   125   126    2
    81   115   114   ar
    82   115   117   ar
    83   160   159    2
    84    78    76   ar
    85   127   128    1
    86   114   116   ar
    87    81    79   ar
    88    25    24    2
    89    76    75    1
    90    76    77   ar
    91    13    14    1
    92    79    77   ar
    93   159   158    1
    94    16    15    2
    95   117   118   ar
    96   128   129    1
    97   177   178    1
    98    24    26   am
    99    24    23    1
   100   116   118   ar
   101   116   119   ar
   102    15    14    1
   103    15    19   am
   104    14    17    1
   105   181   178    1
   106   181   182    1
   107   130   129    2
   108   178   179    1
   109   118   120   ar
   110   184   182   am
   111    19    20    1
   112    20    23    1
   113    20    21    1
   114   119   121   ar
   115   129   131   am
   116   161   158    1
   117   161   162    1
   118   158   157    1
   119    68    67    2
   120   132   133    1
   121   182   183    2
   122    22    21    2
   123    67    66    1
   124   133   136    1
   125   133   134    1
   126    17    18    1
   127    70    69    1
   128   120   122   ar
   129   179   180    2
   130   121   122   ar
   131   162   164   ar
   132   162   163   ar
   133   136   137    1
   134   164   166   ar
   135   134   135    2
   136    69    66    1
   137   152   151    2
   138   163   165   ar
   139   138   137   ar
   140    66    65    1
   141   137   139   ar
   142    37    36   ar
   143    37    35   ar
   144    36    34   ar
   145   151   150    1
   146    35    33   ar
   147   166   167   ar
   148    34    32   ar
   149   165   167   ar
   150    33    32   ar
   151    32    31    1
   152   191   193   ar
   153   191   190   ar
   154   167   168    1
   155    31    28    1
   156   193   194   ar
   157   189   190    1
   158   189   186    1
   159   150   149    1
   160   150   153    1
   161   190   192   ar
   162   185   186    1
   163   140   141    1
   164    30    29    2
   165   145   146    1
   166   145   144    1
   167   194   192   ar
   168   194   196   ar
   169   186   187    1
   170   153   154    1
   171   155   154    2
   172   192   195   ar
   173    28    29    1
   174    28    27    1
   175   147   146    2
   176   154   156   am
   177   146   148   am
   178   141   144    1
   179   141   142    1
   180    61    60    2
   181   196   198   ar
   182    63    62    1
   183    60    59    1
   184   195   197   ar
   185   187   188    2
   186   142   143    2
   187   198   197   ar
   188    62    59    1
   189    62    64    1
   190    59    58    1
   191   212   210   ar
   192   212   211   ar
   193   210   208   ar
   194   211   209   ar
   195   208   206   ar
   196   208   207   ar
   197   209   206   ar
   198   206   204   ar
   199   207   205   ar
   200   204   205   ar
   201   204   203    1
   202   203   200    1
   203   201   202    2
   204   201   200    1
   205   200   199    1
