@<TRIPOS>MOLECULE
tmp/1u0fA00.pdb
 121 111 0 0 0
SMALL
GASTEIGER

@<TRIPOS>ATOM
      1  N          8.2800    9.7020    3.4990 N.3   156  ILE156     -0.1231
      2  CA         8.6580    8.4870    4.2150 C.3   156  ILE156      0.1692
      3  C          9.1370    7.4000    3.2510 C.2   156  ILE156      0.2593
      4  O          8.7730    7.3950    2.0740 O.2   156  ILE156     -0.2718
      5  CB         7.4760    8.0220    5.1500 C.3   156  ILE156      0.0266
      6  CG1        7.9580    7.0790    6.2730 C.3   156  ILE156      0.0019
      7  CG2        6.3280    7.4330    4.3750 C.3   156  ILE156      0.0020
      8  CD1        6.9090    6.8600    7.4000 C.3   156  ILE156      0.0001
      9  N          9.9700    6.4890    3.7480 N.am  157  GLY157     -0.1942
     10  CA        10.5220    5.4250    2.9170 C.3   157  GLY157      0.2014
     11  C         11.3040    5.9750    1.7380 C.2   157  GLY157      0.2639
     12  O         12.2830    6.7150    1.9190 O.2   157  GLY157     -0.2714
     13  N         10.8650    5.6110    0.5360 N.am  158  GLY158     -0.1939
     14  CA        11.5230    6.0420   -0.6940 C.3   158  GLY158      0.2014
     15  C         11.5740    7.5410   -0.9150 C.2   158  GLY158      0.2639
     16  O         12.4070    8.0400   -1.6690 O.2   158  GLY158     -0.2714
     17  N         10.6860    8.2630   -0.2530 N.am  159  SER159     -0.1949
     18  CA        10.6660    9.7130   -0.3670 C.3   159  SER159      0.1924
     19  C         11.4720   10.4010    0.7290 C.2   159  SER159      0.2314
     20  O         11.4350   11.6380    0.8340 O.2   159  SER159     -0.2863
     21  CB         9.2230   10.2040   -0.3650 C.3   159  SER159      0.2116
     22  OG         8.5620    9.8080   -1.5710 O.3   159  SER159     -0.2180
     23  N          7.0600   15.2420   -0.3970 N.3   208  ALA208     -0.1231
     24  CA         7.5940   14.2070   -1.2860 C.3   208  ALA208      0.1694
     25  C          6.7700   12.9350   -1.1390 C.2   208  ALA208      0.2593
     26  O          6.7880   12.2950   -0.0900 O.2   208  ALA208     -0.2718
     27  CB         9.0700   13.9280   -0.9590 C.3   208  ALA208      0.0304
     28  N          6.0180   12.5970   -2.1750 N.am  209  SER209     -0.1938
     29  CA         5.2110   11.3840   -2.1550 C.3   209  SER209      0.2055
     30  C          4.7800   10.9940   -3.5640 C.2   209  SER209      0.2643
     31  O          4.0910   11.7650   -4.2520 O.2   209  SER209     -0.2714
     32  CB         3.9810   11.5890   -1.2650 C.3   209  SER209      0.2130
     33  OG         3.1290   10.4560   -1.3060 O.3   209  SER209     -0.2179
     34  N          5.1600    9.7810   -3.9710 N.am  210  LYS210     -0.1963
     35  CA         4.8430    9.2840   -5.3060 C.3   210  LYS210      0.1728
     36  C          3.3300    9.2910   -5.5180 C.2   210  LYS210      0.2616
     37  O          2.8410    9.8760   -6.5010 O.2   210  LYS210     -0.2715
     38  CB         5.4500    7.8910   -5.5290 C.3   210  LYS210      0.0311
     39  CG         5.1650    7.3290   -6.9240 C.3   210  LYS210      0.0038
     40  CD         5.9940    6.0980   -7.2190 C.3   210  LYS210      0.0206
     41  CE         5.6340    5.5310   -8.5940 C.3   210  LYS210      0.1093
     42  NZ         6.2600    4.1950   -8.8770 N.3   210  LYS210     -0.1314
     43  N          2.6000    8.6920   -4.5720 N.am  211  THR211     -0.1951
     44  CA         1.1310    8.6290   -4.6250 C.3   211  THR211      0.1897
     45  C          0.4450    9.9200   -4.1830 C.2   211  THR211      0.2313
     46  O         -0.6760   10.2110   -4.6000 O.2   211  THR211     -0.2863
     47  CB         0.5910    7.4820   -3.7460 C.3   211  THR211      0.1794
     48  OG1        0.9650    7.7150   -2.3770 O.3   211  THR211     -0.2208
     49  CG2        1.2250    6.1470   -4.1210 C.3   211  THR211      0.0378
     50  N         -0.0390    8.8230    0.9730 N.3   214  THR214     -0.1218
     51  CA         0.5700    8.1250    2.1060 C.3   214  THR214      0.1862
     52  C          0.1590    8.8030    3.3950 C.2   214  THR214      0.2287
     53  O          0.3440   10.0120    3.5410 O.2   214  THR214     -0.2866
     54  CB         2.0770    8.1660    1.9430 C.3   214  THR214      0.1770
     55  OG1        2.3950    7.4480    0.7450 O.3   214  THR214     -0.2211
     56  CG2        2.7790    7.3920    3.0620 C.3   214  THR214      0.0375
     57  N          2.7430   10.9870    5.4440 N.3   217  THR217     -0.1218
     58  CA         3.2260   12.1720    4.7320 C.3   217  THR217      0.1862
     59  C          2.1490   13.2540    4.6050 C.2   217  THR217      0.2287
     60  O          2.4060   14.4320    4.8360 O.2   217  THR217     -0.2866
     61  CB         3.7570   11.7660    3.3470 C.3   217  THR217      0.1770
     62  OG1        4.8580   10.8660    3.5200 O.3   217  THR217     -0.2211
     63  CG2        4.3510   12.9700    2.6000 C.3   217  THR217      0.0375
     64  N          9.8180    3.9930   -5.7570 N.3   271  GLY271     -0.1210
     65  CA        10.1420    4.9000   -4.6610 C.3   271  GLY271      0.1956
     66  C         11.5640    4.6940   -4.1400 C.2   271  GLY271      0.2611
     67  O         12.3160    5.6460   -3.8930 O.2   271  GLY271     -0.2717
     68  N         11.9600    3.4290   -4.0070 N.am  272  ARG272     -0.1979
     69  CA        13.2890    3.1050   -3.4680 C.3   272  ARG272      0.1597
     70  C         14.4020    3.2190   -4.5150 C.2   272  ARG272      0.2287
     71  O         15.5570    2.8700   -4.2190 O.2   272  ARG272     -0.2864
     72  CB        13.3170    1.7020   -2.8310 C.3   272  ARG272      0.0334
     73  CG        12.9070    0.5600   -3.7700 C.3   272  ARG272      0.0492
     74  CD        12.6700   -0.7670   -3.0380 C.3   272  ARG272      0.2205
     75  NE        12.1310   -1.7850   -3.9640 N.pl3 272  ARG272     -0.0865
     76  CZ        10.8380   -2.0180   -4.1500 C.cat 272  ARG272      0.5346
     77  NH1        9.9190   -1.3480   -3.4490 N.pl3 272  ARG272      0.1354
     78  NH2       10.4650   -2.9570   -5.0250 N.pl3 272  ARG272      0.1354
     79  N         15.9830   -0.6030    2.6730 N.3   353  GLN353     -0.1245
     80  CA        14.8530   -0.5080    1.7510 C.3   353  GLN353      0.1566
     81  C         15.2330   -1.0220    0.3780 C.2   353  GLN353      0.2260
     82  O         14.5300   -1.8430   -0.2070 O.2   353  GLN353     -0.2867
     83  CB        14.2360    0.9070    1.6260 C.3   353  GLN353      0.0367
     84  CG        12.9460    0.8570    0.7810 C.3   353  GLN353      0.0905
     85  CD        12.2180    2.1750    0.6160 C.2   353  GLN353      0.2608
     86  OE1       11.0600    2.1820    0.2090 O.2   353  GLN353     -0.2717
     87  NE2       12.8860    3.2790    0.9030 N.am  353  GLN353     -0.0878
     88  N         13.1890   -4.4170    0.4480 N.3   357  GLU357     -0.1245
     89  CA        11.8650   -4.1780   -0.1350 C.3   357  GLU357      0.1567
     90  C         11.8160   -4.6890   -1.5830 C.2   357  GLU357      0.2260
     91  O         10.7390   -5.0830   -2.0440 O.2   357  GLU357     -0.2867
     92  CB        11.4210   -2.7180   -0.0480 C.3   357  GLU357      0.0388
     93  CG         9.9050   -2.5650   -0.1300 C.3   357  GLU357      0.1160
     94  CD         9.4350   -1.1380    0.0340 C.2   357  GLU357      0.3649
     95  OE1        8.7070   -0.8490    1.0100 O.co2 357  GLU357     -0.2457
     96  OE2        9.7860   -0.3080   -0.8220 O.co2 357  GLU357     -0.2457
     97  N          5.8400   -4.1780   -4.4560 N.3   511  GLN511     -0.1245
     98  CA         5.8520   -4.2200   -2.9790 C.3   511  GLN511      0.1566
     99  C          4.4400   -4.4710   -2.4310 C.2   511  GLN511      0.2260
    100  O          3.8570   -3.6520   -1.7200 O.2   511  GLN511     -0.2867
    101  CB         6.5270   -2.9700   -2.3490 C.3   511  GLN511      0.0367
    102  CG         5.9140   -1.6200   -2.7110 C.3   511  GLN511      0.0905
    103  CD         6.1980   -1.1960   -4.1460 C.2   511  GLN511      0.2608
    104  OE1        7.3310   -1.3000   -4.6150 O.2   511  GLN511     -0.2717
    105  NE2        5.1730   -0.6870   -4.8280 N.am  511  GLN511     -0.0878
    106  N          3.3850   -4.5440    1.7360 N.3   514  VAL514     -0.1245
    107  CA         3.0660   -3.4410    2.6420 C.3   514  VAL514      0.1561
    108  C          1.5560   -3.1580    2.7770 C.2   514  VAL514      0.2260
    109  O          1.1520   -2.3910    3.6510 O.2   514  VAL514     -0.2867
    110  CB         3.8560   -2.1420    2.2710 C.3   514  VAL514      0.0252
    111  CG1        5.3590   -2.4160    2.2380 C.3   514  VAL514      0.0019
    112  CG2        3.3630   -1.5300    0.9650 C.3   514  VAL514      0.0019
    113  N         -1.3770   -1.5110    6.2640 N.3   518  LYS518     -0.1245
    114  CA        -2.1010   -0.2600    6.0460 C.3   518  LYS518      0.1561
    115  C         -3.6020   -0.4630    6.2350 C.2   518  LYS518      0.2260
    116  O         -4.2790    0.3810    6.8320 O.2   518  LYS518     -0.2867
    117  CB        -1.8270    0.2810    4.6380 C.3   518  LYS518      0.0271
    118  CG        -0.3900    0.7560    4.4200 C.3   518  LYS518      0.0035
    119  CD        -0.1940    1.1350    2.9570 C.3   518  LYS518      0.0206
    120  CE         1.2440    1.5110    2.6650 C.3   518  LYS518      0.1093
    121  NZ         1.3860    1.8190    1.2110 N.3   518  LYS518     -0.1314
@<TRIPOS>BOND
     1    42    41    1
     2    41    40    1
     3    40    39    1
     4    39    38    1
     5    37    36    2
     6    64    65    1
     7    38    35    1
     8    36    35    1
     9    36    43   am
    10    35    34    1
    11    78    76    1
    12   105   103   am
    13    65    66    1
    14    44    43    1
    15    44    45    1
    16    44    47    1
    17   104   103    2
    18    46    45    2
    19    70    71    2
    20    70    69    1
    21    97    98    1
    22    31    30    2
    23    76    75    2
    24    76    77    1
    25   103   102    1
    26    66    68   am
    27    66    67    2
    28    49    47    1
    29    68    69    1
    30    34    30   am
    31    75    74    1
    32    73    74    1
    33    73    72    1
    34    47    48    1
    35    30    29    1
    36    69    72    1
    37    98    99    1
    38    98   101    1
    39   102   101    1
    40    99   100    2
    41    28    29    1
    42    28    25   am
    43    29    32    1
    44    91    90    2
    45    16    15    2
    46    90    89    1
    47    22    21    1
    48    33    32    1
    49    24    25    1
    50    24    27    1
    51    24    23    1
    52    25    26    2
    53    15    14    1
    54    15    17   am
    55    96    94   ar
    56    14    13    1
    57    18    21    1
    58    18    17    1
    59    18    19    1
    60    82    81    2
    61    89    92    1
    62    89    88    1
    63    93    92    1
    64    93    94    1
    65    94    95   ar
    66    86    85    2
    67    81    80    1
    68    13    11   am
    69    85    84    1
    70    85    87   am
    71    19    20    2
    72    55    54    1
    73    84    83    1
    74   112   110    1
    75    50    51    1
    76   121   120    1
    77    83    80    1
    78   106   107    1
    79    11    12    2
    80    11    10    1
    81    80    79    1
    82    54    51    1
    83    54    56    1
    84     4     3    2
    85    51    52    1
    86   111   110    1
    87   110   107    1
    88    63    61    1
    89   107   108    1
    90   120   119    1
    91   108   109    2
    92    10     9    1
    93   119   118    1
    94     3     9   am
    95     3     2    1
    96    61    62    1
    97    61    58    1
    98    52    53    2
    99     1     2    1
   100     2     5    1
   101     7     5    1
   102   118   117    1
   103    59    58    1
   104    59    60    2
   105   117   114    1
   106    58    57    1
   107     5     6    1
   108   114   115    1
   109   114   113    1
   110   115   116    2
   111     6     8    1
