@<TRIPOS>MOLECULE
tmp/1u0jA00.pdb
 106 104 0 0 0
SMALL
GASTEIGER

@<TRIPOS>ATOM
      1  N         63.8410   23.9350   20.0360 N.3   113  ALA113     -0.1231
      2  CA        63.8860   24.8390   18.9010 C.3   113  ALA113      0.1694
      3  C         64.0710   24.1190   17.5730 C.2   113  ALA113      0.2593
      4  O         64.6490   23.0280   17.5080 O.2   113  ALA113     -0.2718
      5  CB        64.9900   25.8670   19.0990 C.3   113  ALA113      0.0304
      6  N         63.5500   24.7480   16.5230 N.am  114  THR114     -0.1939
      7  CA        63.6420   24.2570   15.1550 C.3   114  THR114      0.2028
      8  C         62.8060   23.0260   14.8750 C.2   114  THR114      0.2643
      9  O         63.1510   22.2320   14.0080 O.2   114  THR114     -0.2714
     10  CB        65.1050   23.9420   14.7820 C.3   114  THR114      0.1808
     11  OG1       65.9630   24.8990   15.4090 O.3   114  THR114     -0.2208
     12  CG2       65.3020   24.0250   13.2810 C.3   114  THR114      0.0379
     13  N         61.7070   22.8600   15.5980 N.am  115  THR115     -0.1936
     14  CA        60.8550   21.7050   15.3590 C.3   115  THR115      0.2028
     15  C         59.6440   22.0710   14.4890 C.2   115  THR115      0.2643
     16  O         58.8480   21.2090   14.1210 O.2   115  THR115     -0.2714
     17  CB        60.3960   21.0620   16.6940 C.3   115  THR115      0.1808
     18  OG1       59.7370   22.0320   17.5190 O.3   115  THR115     -0.2208
     19  CG2       61.5990   20.5160   17.4430 C.3   115  THR115      0.0379
     20  N         59.5340   23.3500   14.1410 N.am  116  GLY116     -0.1939
     21  CA        58.4300   23.8120   13.3130 C.3   116  GLY116      0.2014
     22  C         57.2460   24.3820   14.0860 C.2   116  GLY116      0.2639
     23  O         56.1640   24.5860   13.5150 O.2   116  GLY116     -0.2714
     24  N         57.4410   24.6460   15.3800 N.am  117  LYS117     -0.1963
     25  CA        56.3670   25.1800   16.2220 C.3   117  LYS117      0.1728
     26  C         55.9120   26.5580   15.7400 C.2   117  LYS117      0.2617
     27  O         54.7230   26.7720   15.4860 O.2   117  LYS117     -0.2715
     28  CB        56.8200   25.2670   17.6840 C.3   117  LYS117      0.0311
     29  CG        57.2370   23.9300   18.2820 C.3   117  LYS117      0.0038
     30  CD        57.5320   24.0440   19.7770 C.3   117  LYS117      0.0206
     31  CE        58.6210   25.0780   20.0590 C.3   117  LYS117      0.1093
     32  NZ        59.9010   24.7580   19.3600 N.3   117  LYS117     -0.1314
     33  N         56.8670   27.4800   15.6220 N.am  118  THR118     -0.1937
     34  CA        56.5890   28.8370   15.1730 C.3   118  THR118      0.2028
     35  C         56.1740   28.8500   13.7100 C.2   118  THR118      0.2642
     36  O         55.3310   29.6500   13.3090 O.2   118  THR118     -0.2714
     37  CB        57.8260   29.7480   15.3430 C.3   118  THR118      0.1808
     38  OG1       58.0770   29.9490   16.7420 O.3   118  THR118     -0.2208
     39  CG2       57.6010   31.0940   14.6750 C.3   118  THR118      0.0379
     40  N         56.7730   27.9630   12.9190 N.am  119  ASN119     -0.1971
     41  CA        56.4710   27.8630   11.4960 C.3   119  ASN119      0.1688
     42  C         54.9770   27.6330   11.3250 C.2   119  ASN119      0.2292
     43  O         54.3240   28.2770   10.5040 O.2   119  ASN119     -0.2864
     44  CB        57.2330   26.6870   10.8720 C.3   119  ASN119      0.1181
     45  CG        57.3720   26.8160    9.3760 C.2   119  ASN119      0.2629
     46  OD1       56.7650   27.6950    8.7660 O.2   119  ASN119     -0.2716
     47  ND2       58.1750   25.9340    8.7700 N.am  119  ASN119     -0.0877
     48  N         52.7130   30.6060   13.3940 N.3   122  GLU122     -0.1245
     49  CA        52.7300   31.8590   12.6610 C.3   122  GLU122      0.1567
     50  C         52.0180   31.7700   11.3210 C.2   122  GLU122      0.2260
     51  O         51.3970   32.7310   10.8860 O.2   122  GLU122     -0.2867
     52  CB        54.1580   32.3390   12.4410 C.3   122  GLU122      0.0388
     53  CG        54.2530   33.4880   11.4650 C.3   122  GLU122      0.1160
     54  CD        55.6750   33.9270   11.2740 C.2   122  GLU122      0.3649
     55  OE1       56.1820   34.6700   12.1410 O.co2 122  GLU122     -0.2457
     56  OE2       56.2870   33.5090   10.2670 O.co2 122  GLU122     -0.2457
     57  N         63.8580   20.1360   12.5910 N.3   225  LEU225     -0.1231
     58  CA        63.6490   20.2020   11.1550 C.3   225  LEU225      0.1693
     59  C         64.8860   20.7150   10.4400 C.2   225  LEU225      0.2592
     60  O         65.6290   21.5380   10.9740 O.2   225  LEU225     -0.2718
     61  CB        62.4640   21.1120   10.8310 C.3   225  LEU225      0.0284
     62  CG        61.1090   20.6530   11.3700 C.3   225  LEU225      0.0019
     63  CD1       60.0240   21.6200   10.9120 C.3   225  LEU225      0.0001
     64  CD2       60.8190   19.2400   10.8730 C.3   225  LEU225      0.0001
     65  N         65.1040   20.2170    9.2290 N.am  226  ASP226     -0.1960
     66  CA        66.2420   20.6440    8.4350 C.3   226  ASP226      0.1840
     67  C         66.0540   22.1260    8.1130 C.2   226  ASP226      0.2622
     68  O         64.9310   22.5920    7.9180 O.2   226  ASP226     -0.2715
     69  CB        66.3960   19.7560    7.1990 C.3   226  ASP226      0.1450
     70  CG        66.6140   18.2980    7.5530 C.2   226  ASP226      0.3671
     71  OD1       67.0200   18.0190    8.7010 O.co2 226  ASP226     -0.2456
     72  OD2       66.3790   17.4340    6.6820 O.co2 226  ASP226     -0.2456
     73  N         67.1560   22.8650    8.0700 N.am  227  HIS227     -0.1973
     74  CA        67.1130   24.2940    7.7720 C.3   227  HIS227      0.1656
     75  C         66.4180   24.5120    6.4320 C.2   227  HIS227      0.2291
     76  O         65.9760   25.6100    6.1150 O.2   227  HIS227     -0.2864
     77  CB        68.5390   24.8390    7.6760 C.3   227  HIS227      0.0771
     78  CG        69.2180   24.5010    6.3830 C.ar  227  HIS227      0.0820
     79  ND1       69.1140   25.2950    5.2590 N.ar  227  HIS227     -0.2267
     80  CD2       69.9450   23.4190    6.0120 C.ar  227  HIS227      0.1154
     81  CE1       69.7470   24.7160    4.2530 C.ar  227  HIS227      0.1986
     82  NE2       70.2580   23.5770    4.6830 N.ar  227  HIS227     -0.2212
     83  N         63.6550   22.6670    5.2860 N.3   229  PHE229     -0.1227
     84  CA        62.2210   22.3630    5.3320 C.3   229  PHE229      0.1736
     85  C         61.2960   23.3770    4.6570 C.2   229  PHE229      0.2596
     86  O         60.4180   23.0020    3.8830 O.2   229  PHE229     -0.2718
     87  CB        61.7720   22.1740    6.7820 C.3   229  PHE229      0.0547
     88  CG        60.4210   21.5330    6.9130 C.ar  229  PHE229     -0.0202
     89  CD1       60.2220   20.2120    6.5100 C.ar  229  PHE229     -0.0042
     90  CD2       59.3480   22.2420    7.4350 C.ar  229  PHE229     -0.0042
     91  CE1       58.9710   19.6070    6.6280 C.ar  229  PHE229     -0.0003
     92  CE2       58.0910   21.6460    7.5560 C.ar  229  PHE229     -0.0003
     93  CZ        57.9040   20.3280    7.1530 C.ar  229  PHE229     -0.0000
     94  N         61.4830   24.6560    4.9600 N.am  230  GLY230     -0.1942
     95  CA        60.6420   25.6750    4.3630 C.3   230  GLY230      0.2014
     96  C         59.5910   26.2220    5.3160 C.2   230  GLY230      0.2638
     97  O         59.2830   25.6110    6.3410 O.2   230  GLY230     -0.2714
     98  N         59.0420   27.3820    4.9730 N.am  231  LYS231     -0.1977
     99  CA        58.0210   28.0290    5.7920 C.3   231  LYS231      0.1596
    100  C         56.6310   27.5430    5.3920 C.2   231  LYS231      0.2287
    101  O         56.3280   27.4520    4.2100 O.2   231  LYS231     -0.2864
    102  CB        58.0920   29.5540    5.6180 C.3   231  LYS231      0.0298
    103  CG        57.3230   30.3500    6.6670 C.3   231  LYS231      0.0038
    104  CD        57.4360   31.8560    6.4170 C.3   231  LYS231      0.0206
    105  CE        57.0620   32.6830    7.6540 C.3   231  LYS231      0.1093
    106  NZ        55.9070   32.1500    8.4450 N.3   231  LYS231     -0.1314
@<TRIPOS>BOND
     1    86    85    2
     2   101   100    2
     3    81    82   ar
     4    81    79   ar
     5    95    94    1
     6    95    96    1
     7    85    94   am
     8    85    84    1
     9    82    80   ar
    10    98    96   am
    11    98    99    1
    12    79    78   ar
    13    83    84    1
    14    96    97    2
    15    84    87    1
    16   100    99    1
    17   102    99    1
    18   102   103    1
    19    80    78   ar
    20    76    75    2
    21    78    77    1
    22   104   103    1
    23   104   105    1
    24    75    74    1
    25    89    91   ar
    26    89    88   ar
    27    91    93   ar
    28    72    70   ar
    29    87    88    1
    30    88    90   ar
    31    93    92   ar
    32    69    70    1
    33    69    66    1
    34    90    92   ar
    35    70    71   ar
    36   105   106    1
    37    77    74    1
    38    74    73    1
    39    68    67    2
    40    73    67   am
    41    67    66    1
    42    66    65    1
    43    46    45    2
    44    47    45   am
    45    65    59   am
    46    45    44    1
    47    56    54   ar
    48    59    60    2
    49    59    58    1
    50    43    42    2
    51    61    58    1
    52    61    62    1
    53    44    41    1
    54    64    62    1
    55    51    50    2
    56    63    62    1
    57    58    57    1
    58    54    53    1
    59    54    55   ar
    60    50    49    1
    61    42    41    1
    62    53    52    1
    63    41    40    1
    64    52    49    1
    65    49    48    1
    66    40    35   am
    67    12    10    1
    68    36    35    2
    69    21    22    1
    70    21    20    1
    71    23    22    2
    72    35    34    1
    73     9     8    2
    74    22    24   am
    75    16    15    2
    76    20    15   am
    77    15    14    1
    78    39    37    1
    79    10     7    1
    80    10    11    1
    81     8     7    1
    82     8    13   am
    83     7     6    1
    84    34    37    1
    85    34    33    1
    86    37    38    1
    87    14    13    1
    88    14    17    1
    89    24    25    1
    90    27    26    2
    91    33    26   am
    92    26    25    1
    93    25    28    1
    94     6     3   am
    95    17    19    1
    96    17    18    1
    97     4     3    2
    98     3     2    1
    99    28    29    1
   100    29    30    1
   101     2     5    1
   102     2     1    1
   103    32    31    1
   104    30    31    1
