@<TRIPOS>MOLECULE
tmp/1u0lA00.pdb
 103 98 0 0 0
SMALL
GASTEIGER

@<TRIPOS>ATOM
      1  N         44.8950   66.6460   37.9210 N.3   115  ASN115     -0.1225
      2  CA        44.7730   65.4870   38.8080 C.3   115  ASN115      0.1785
      3  C         45.2440   65.6820   40.2710 C.2   115  ASN115      0.2597
      4  O         45.7830   66.7270   40.6370 O.2   115  ASN115     -0.2718
      5  CB        45.5320   64.3170   38.1780 C.3   115  ASN115      0.1169
      6  CG        45.2660   63.0000   38.8810 C.2   115  ASN115      0.2627
      7  OD1       46.1730   62.1620   39.0100 O.2   115  ASN115     -0.2716
      8  ND2       44.0200   62.8030   39.3320 N.am  115  ASN115     -0.0877
      9  N         45.0290   64.6610   41.0990 N.am  116  LYS116     -0.1980
     10  CA        45.4510   64.6950   42.5000 C.3   116  LYS116      0.1596
     11  C         44.7350   65.7640   43.3210 C.2   116  LYS116      0.2287
     12  O         45.3160   66.3310   44.2460 O.2   116  LYS116     -0.2864
     13  CB        46.9630   64.9470   42.6040 C.3   116  LYS116      0.0298
     14  CG        47.8690   63.9070   41.9540 C.3   116  LYS116      0.0038
     15  CD        49.1940   63.8210   42.7140 C.3   116  LYS116      0.0206
     16  CE        50.3860   63.4160   41.8440 C.3   116  LYS116      0.1093
     17  NZ        50.3730   61.9920   41.5040 N.3   116  LYS116     -0.1314
     18  N         42.5670   65.4540   45.5030 N.3   118  ASP118     -0.1225
     19  CA        42.4200   65.0270   46.8890 C.3   118  ASP118      0.1805
     20  C         43.5520   65.4990   47.7800 C.2   118  ASP118      0.2597
     21  O         43.4290   65.5040   49.0030 O.2   118  ASP118     -0.2718
     22  CB        42.3350   63.5050   46.9700 C.3   118  ASP118      0.1424
     23  CG        43.5710   62.8310   46.4190 C.2   118  ASP118      0.3668
     24  OD1       43.7030   62.7740   45.1790 O.co2 118  ASP118     -0.2456
     25  OD2       44.4170   62.3760   47.2170 O.co2 118  ASP118     -0.2456
     26  N         44.6510   65.9070   47.1630 N.am  119  LEU119     -0.1979
     27  CA        45.8310   66.3450   47.9000 C.3   119  LEU119      0.1596
     28  C         45.9090   67.8470   48.1390 C.2   119  LEU119      0.2287
     29  O         46.6530   68.3040   49.0040 O.2   119  LEU119     -0.2864
     30  CB        47.0750   65.9200   47.1250 C.3   119  LEU119      0.0297
     31  CG        48.1310   64.9900   47.7100 C.3   119  LEU119      0.0022
     32  CD1       47.5120   63.6620   48.1230 C.3   119  LEU119      0.0001
     33  CD2       49.2100   64.7820   46.6490 C.3   119  LEU119      0.0001
     34  N         40.8200   62.7330   40.6270 N.3   145  SER145     -0.1202
     35  CA        41.5580   62.1010   41.7110 C.3   145  SER145      0.2020
     36  C         41.5340   60.6150   41.4320 C.2   145  SER145      0.2619
     37  O         40.5080   59.9670   41.6140 O.2   145  SER145     -0.2717
     38  CB        40.9290   62.3470   43.0700 C.3   145  SER145      0.2103
     39  OG        41.7240   61.7250   44.0770 O.3   145  SER145     -0.2182
     40  N         42.6540   60.0790   40.9640 N.am  146  ALA146     -0.1965
     41  CA        42.7410   58.6580   40.6740 C.3   146  ALA146      0.1728
     42  C         42.3250   57.8790   41.9180 C.2   146  ALA146      0.2616
     43  O         41.6620   56.8460   41.8210 O.2   146  ALA146     -0.2715
     44  CB        44.1590   58.2910   40.2770 C.3   146  ALA146      0.0334
     45  N         42.7070   58.3980   43.0850 N.am  147  LYS147     -0.1977
     46  CA        42.3950   57.7720   44.3700 C.3   147  LYS147      0.1596
     47  C         40.9170   57.8540   44.7650 C.2   147  LYS147      0.2287
     48  O         40.2440   56.8380   44.9310 O.2   147  LYS147     -0.2864
     49  CB        43.2420   58.4180   45.4710 C.3   147  LYS147      0.0298
     50  CG        44.7300   58.1380   45.3900 C.3   147  LYS147      0.0038
     51  CD        45.0470   56.6790   45.7140 C.3   147  LYS147      0.0206
     52  CE        46.5490   56.4120   45.6790 C.3   147  LYS147      0.1093
     53  NZ        47.2850   57.2400   46.6830 N.3   147  LYS147     -0.1314
     54  N         56.2230   62.9370   34.3600 N.3   170  SER170     -0.1202
     55  CA        56.3030   61.7020   35.1320 C.3   170  SER170      0.2020
     56  C         55.8630   61.9260   36.5470 C.2   170  SER170      0.2619
     57  O         56.3300   62.8540   37.2010 O.2   170  SER170     -0.2717
     58  CB        57.7260   61.1800   35.1450 C.3   170  SER170      0.2103
     59  OG        58.2810   61.3010   33.8410 O.3   170  SER170     -0.2182
     60  N         54.9470   61.0820   37.0090 N.am  171  GLY171     -0.1942
     61  CA        54.4520   61.1680   38.3700 C.3   171  GLY171      0.2014
     62  C         53.1340   61.8860   38.5190 C.2   171  GLY171      0.2639
     63  O         52.4610   61.7620   39.5450 O.2   171  GLY171     -0.2714
     64  N         52.7510   62.6300   37.4890 N.am  172  VAL172     -0.1963
     65  CA        51.5180   63.4070   37.5130 C.3   172  VAL172      0.1727
     66  C         50.2750   62.5300   37.7530 C.2   172  VAL172      0.2617
     67  O         49.2270   63.0300   38.1640 O.2   172  VAL172     -0.2715
     68  CB        51.3890   64.2150   36.2030 C.3   172  VAL172      0.0290
     69  CG1       50.8460   63.3290   35.0920 C.3   172  VAL172      0.0023
     70  CG2       50.5310   65.4210   36.4250 C.3   172  VAL172      0.0023
     71  N         50.4010   61.2240   37.5100 N.am  173  GLY173     -0.1940
     72  CA        49.2900   60.3070   37.7420 C.3   173  GLY173      0.2014
     73  C         48.6470   59.6440   36.5320 C.2   173  GLY173      0.2639
     74  O         47.5460   59.1040   36.6350 O.2   173  GLY173     -0.2714
     75  N         49.3350   59.6660   35.3950 N.am  174  LYS174     -0.1963
     76  CA        48.8190   59.0930   34.1510 C.3   174  LYS174      0.1728
     77  C         48.3950   57.6200   34.2420 C.2   174  LYS174      0.2617
     78  O         47.2910   57.2520   33.8340 O.2   174  LYS174     -0.2715
     79  CB        49.8500   59.2860   33.0260 C.3   174  LYS174      0.0311
     80  CG        50.1980   60.7610   32.7730 C.3   174  LYS174      0.0038
     81  CD        51.0760   60.9940   31.5430 C.3   174  LYS174      0.0206
     82  CE        52.4500   60.3360   31.6630 C.3   174  LYS174      0.1093
     83  NZ        53.3480   60.8380   32.7560 N.3   174  LYS174     -0.1314
     84  N         49.2620   56.7790   34.7910 N.am  175  SER175     -0.1936
     85  CA        48.9570   55.3670   34.9210 C.3   175  SER175      0.2055
     86  C         47.8750   55.1050   35.9780 C.2   175  SER175      0.2643
     87  O         47.0790   54.1800   35.8370 O.2   175  SER175     -0.2714
     88  CB        50.2330   54.5960   35.2670 C.3   175  SER175      0.2130
     89  OG        50.0680   53.2020   35.0600 O.3   175  SER175     -0.2179
     90  N         47.8450   55.9150   37.0320 N.am  176  SER176     -0.1949
     91  CA        46.8550   55.7430   38.0950 C.3   176  SER176      0.1924
     92  C         45.4600   56.0840   37.6100 C.2   176  SER176      0.2314
     93  O         44.4910   55.4270   38.0010 O.2   176  SER176     -0.2863
     94  CB        47.1690   56.6280   39.3060 C.3   176  SER176      0.2116
     95  OG        48.4610   56.3850   39.8300 O.3   176  SER176     -0.2180
     96  N         49.7670   51.9280   32.1460 N.3   187  LEU187     -0.1245
     97  CA        50.8030   52.3870   31.2300 C.3   187  LEU187      0.1561
     98  C         52.0040   51.4580   31.2610 C.2   187  LEU187      0.2260
     99  O         52.1220   50.6290   32.1550 O.2   187  LEU187     -0.2867
    100  CB        51.2470   53.7890   31.6150 C.3   187  LEU187      0.0270
    101  CG        50.2000   54.8820   31.4230 C.3   187  LEU187      0.0019
    102  CD1       50.6710   56.1650   32.0960 C.3   187  LEU187      0.0001
    103  CD2       49.9620   55.1060   29.9330 C.3   187  LEU187      0.0001
@<TRIPOS>BOND
     1   103   101    1
     2    97    98    1
     3    97   100    1
     4    97    96    1
     5    98    99    2
     6   101   100    1
     7   101   102    1
     8    81    82    1
     9    81    80    1
    10    82    83    1
    11    80    79    1
    12    79    76    1
    13    78    77    2
    14    59    58    1
    15    76    77    1
    16    76    75    1
    17    77    84   am
    18    54    55    1
    19    84    85    1
    20    85    88    1
    21    85    86    1
    22    89    88    1
    23    69    68    1
    24    55    58    1
    25    55    56    1
    26    75    73   am
    27    87    86    2
    28    86    90   am
    29    68    70    1
    30    68    65    1
    31    73    74    2
    32    73    72    1
    33    56    60   am
    34    56    57    2
    35    60    61    1
    36    90    91    1
    37    64    65    1
    38    64    62   am
    39    71    72    1
    40    71    66   am
    41    65    66    1
    42    92    93    2
    43    92    91    1
    44    66    67    2
    45     1     2    1
    46    91    94    1
    47     5     2    1
    48     5     6    1
    49    61    62    1
    50    62    63    2
    51     2     3    1
    52     6     7    2
    53     6     8   am
    54    94    95    1
    55     3     4    2
    56     3     9   am
    57    44    41    1
    58    34    35    1
    59    41    40    1
    60    41    42    1
    61    40    36   am
    62     9    10    1
    63    36    37    2
    64    36    35    1
    65    17    16    1
    66    35    38    1
    67    43    42    2
    68    16    15    1
    69    42    45   am
    70    14    13    1
    71    14    15    1
    72    10    13    1
    73    10    11    1
    74    38    39    1
    75    45    46    1
    76    11    12    2
    77    46    47    1
    78    46    49    1
    79    47    48    2
    80    24    23   ar
    81    50    49    1
    82    50    51    1
    83    18    19    1
    84    52    51    1
    85    52    53    1
    86    23    22    1
    87    23    25   ar
    88    33    31    1
    89    19    22    1
    90    19    20    1
    91    30    31    1
    92    30    27    1
    93    26    20   am
    94    26    27    1
    95    31    32    1
    96    20    21    2
    97    27    28    1
    98    28    29    2
