@<TRIPOS>MOLECULE
tmp/1u0mA00.pdb
 205 192 0 0 0
SMALL
GASTEIGER

@<TRIPOS>ATOM
      1  N         36.5280   42.5570   45.7840 N.3    15  ILE15      -0.1245
      2  CA        35.5600   41.5070   45.5220 C.3    15  ILE15       0.1561
      3  C         36.2170   40.1830   45.9160 C.2    15  ILE15       0.2260
      4  O         37.3220   39.8410   45.4540 O.2    15  ILE15      -0.2867
      5  CB        35.0720   41.4780   44.0420 C.3    15  ILE15       0.0252
      6  CG1       34.0530   40.3460   43.8740 C.3    15  ILE15       0.0019
      7  CG2       36.2360   41.3490   43.0890 C.3    15  ILE15       0.0019
      8  CD1       33.3340   40.3180   42.5350 C.3    15  ILE15       0.0001
      9  N         32.2020   36.5430   44.0740 N.3    20  THR20      -0.1218
     10  CA        32.3100   36.2220   42.6530 C.3    20  THR20       0.1862
     11  C         31.3890   35.0640   42.3190 C.2    20  THR20       0.2287
     12  O         30.6480   35.1150   41.3330 O.2    20  THR20      -0.2866
     13  CB        33.7530   35.8270   42.2480 C.3    20  THR20       0.1770
     14  OG1       34.6270   36.9540   42.3910 O.3    20  THR20      -0.2211
     15  CG2       33.7870   35.3710   40.8040 C.3    20  THR20       0.0375
     16  N         27.5280   36.1450   42.4100 N.3    23  LEU23      -0.1231
     17  CA        27.1780   36.8940   41.2080 C.3    23  LEU23       0.1693
     18  C         27.0970   35.9380   40.0220 C.2    23  LEU23       0.2591
     19  O         26.0780   35.8730   39.3360 O.2    23  LEU23      -0.2718
     20  CB        28.2230   37.9920   40.9240 C.3    23  LEU23       0.0284
     21  CG        28.5680   38.9900   42.0350 C.3    23  LEU23       0.0019
     22  CD1       29.4740   40.0510   41.4900 C.3    23  LEU23       0.0001
     23  CD2       27.3170   39.6310   42.5850 C.3    23  LEU23       0.0001
     24  N         28.1690   35.1930   39.7860 N.am   24  ALA24      -0.1980
     25  CA        28.1990   34.2430   38.6800 C.3    24  ALA24       0.1597
     26  C         26.9870   33.3230   38.7260 C.2    24  ALA24       0.2287
     27  O         26.4000   32.9970   37.6930 O.2    24  ALA24      -0.2864
     28  CB        29.4710   33.4290   38.7280 C.3    24  ALA24       0.0319
     29  N         23.8230   35.5470   38.1530 N.3    27  ARG27      -0.1231
     30  CA        23.8370   36.0620   36.7930 C.3    27  ARG27       0.1694
     31  C         23.8970   35.0130   35.6810 C.2    27  ARG27       0.2592
     32  O         23.8380   35.3620   34.5060 O.2    27  ARG27      -0.2718
     33  CB        24.9820   37.0730   36.6440 C.3    27  ARG27       0.0321
     34  CG        24.8590   38.2650   37.6130 C.3    27  ARG27       0.0489
     35  CD        26.1390   39.0950   37.7020 C.3    27  ARG27       0.2205
     36  NE        26.4220   39.8340   36.4730 N.pl3  27  ARG27      -0.0865
     37  CZ        25.8410   40.9820   36.1280 C.cat  27  ARG27       0.5346
     38  NH1       24.9360   41.5450   36.9220 N.pl3  27  ARG27       0.1354
     39  NH2       26.1640   41.5660   34.9780 N.pl3  27  ARG27       0.1354
     40  N         24.0020   33.7340   36.0280 N.am   28  HIS28      -0.1976
     41  CA        24.0550   32.7040   34.9900 C.3    28  HIS28       0.1656
     42  C         23.3670   31.4150   35.3910 C.2    28  HIS28       0.2291
     43  O         23.6940   30.3440   34.8910 O.2    28  HIS28      -0.2864
     44  CB        25.5010   32.4120   34.5950 C.3    28  HIS28       0.0771
     45  CG        26.2080   33.5940   34.0170 C.ar   28  HIS28       0.0820
     46  ND1       26.8260   34.5480   34.7980 N.ar   28  HIS28      -0.2267
     47  CD2       26.3390   34.0130   32.7370 C.ar   28  HIS28       0.1154
     48  CE1       27.3050   35.5040   34.0230 C.ar   28  HIS28       0.1986
     49  NE2       27.0220   35.2030   32.7690 N.ar   28  HIS28      -0.2212
     50  N         40.1530   40.4390   44.8200 N.3    49  ARG49      -0.1245
     51  CA        40.5660   41.2150   43.6670 C.3    49  ARG49       0.1563
     52  C         40.1360   42.6450   43.9360 C.2    49  ARG49       0.2260
     53  O         39.2300   42.8750   44.7370 O.2    49  ARG49      -0.2867
     54  CB        39.8800   40.6980   42.4050 C.3    49  ARG49       0.0307
     55  CG        40.2140   39.2690   42.0530 C.3    49  ARG49       0.0489
     56  CD        39.5120   38.8500   40.7890 C.3    49  ARG49       0.2205
     57  NE        38.0730   38.7710   40.9910 N.pl3  49  ARG49      -0.0865
     58  CZ        37.1880   38.8020   40.0020 C.cat  49  ARG49       0.5346
     59  NH1       37.6080   38.9140   38.7540 N.pl3  49  ARG49       0.1354
     60  NH2       35.8870   38.7230   40.2610 N.pl3  49  ARG49       0.1354
     61  N         38.9780   46.4700   42.2060 N.3    51  ILE51      -0.1245
     62  CA        38.4800   47.1230   41.0030 C.3    51  ILE51       0.1561
     63  C         38.3680   48.6320   41.2640 C.2    51  ILE51       0.2260
     64  O         38.1750   49.0600   42.4040 O.2    51  ILE51      -0.2867
     65  CB        37.1200   46.5340   40.5840 C.3    51  ILE51       0.0252
     66  CG1       36.1360   46.6040   41.7480 C.3    51  ILE51       0.0019
     67  CG2       37.3050   45.0880   40.1240 C.3    51  ILE51       0.0019
     68  CD1       34.8080   45.9010   41.4740 C.3    51  ILE51       0.0001
     69  N         31.3280   47.5470   42.7490 N.3    55  ILE55      -0.1245
     70  CA        30.9220   46.3710   41.9800 C.3    55  ILE55       0.1561
     71  C         29.6680   46.5860   41.1350 C.2    55  ILE55       0.2260
     72  O         29.5950   46.0950   40.0110 O.2    55  ILE55      -0.2867
     73  CB        30.7250   45.1260   42.9040 C.3    55  ILE55       0.0252
     74  CG1       30.3760   43.8960   42.0630 C.3    55  ILE55       0.0019
     75  CG2       29.6270   45.3920   43.9310 C.3    55  ILE55       0.0019
     76  CD1       31.4750   43.4330   41.1240 C.3    55  ILE55       0.0001
     77  N         30.7730   48.4130   37.9380 N.3    58  THR58      -0.1203
     78  CA        31.6110   47.6270   37.0420 C.3    58  THR58       0.1994
     79  C         30.8300   46.5310   36.3380 C.2    58  THR58       0.2617
     80  O         31.2300   46.0760   35.2690 O.2    58  THR58      -0.2717
     81  CB        32.8390   47.0200   37.7690 C.3    58  THR58       0.1784
     82  OG1       33.0390   45.6630   37.3460 O.3    58  THR58      -0.2211
     83  CG2       32.6720   47.0710   39.2090 C.3    58  THR58       0.0376
     84  N         29.7080   46.1200   36.9250 N.am   59  LEU59      -0.1979
     85  CA        28.8630   45.0870   36.3190 C.3    59  LEU59       0.1596
     86  C         28.0280   45.6730   35.1750 C.2    59  LEU59       0.2287
     87  O         27.5770   44.9650   34.2720 O.2    59  LEU59      -0.2864
     88  CB        27.9470   44.4720   37.3680 C.3    59  LEU59       0.0297
     89  CG        28.5480   43.5200   38.4070 C.3    59  LEU59       0.0022
     90  CD1       27.4530   43.1370   39.4030 C.3    59  LEU59       0.0001
     91  CD2       29.1150   42.2740   37.7370 C.3    59  LEU59       0.0001
     92  N         46.7400   47.3430   28.4220 N.3   105  CYS105     -0.1221
     93  CA        45.9320   46.7710   27.3470 C.3   105  CYS105      0.1808
     94  C         44.4640   46.8250   27.7260 C.2   105  CYS105      0.2601
     95  O         43.6050   46.2950   27.0240 O.2   105  CYS105     -0.2717
     96  CB        46.3430   45.3210   27.0910 C.3   105  CYS105      0.0970
     97  SG        46.0350   44.2050   28.4590 S.3   105  CYS105     -0.0800
     98  N         44.1750   47.4980   28.8330 N.am  106  THR106     -0.1953
     99  CA        42.8100   47.5830   29.3370 C.3   106  THR106      0.1897
    100  C         42.0210   48.8150   28.9400 C.2   106  THR106      0.2313
    101  O         40.8990   49.0150   29.3810 O.2   106  THR106     -0.2863
    102  CB        42.8260   47.4660   30.8400 C.3   106  THR106      0.1794
    103  OG1       43.9180   48.2400   31.3450 O.3   106  THR106     -0.2208
    104  CG2       43.0020   45.9980   31.2410 C.3   106  THR106      0.0378
    105  N         49.5240   42.6320   26.2610 N.3   136  GLY136     -0.1210
    106  CA        48.8120   42.0850   27.4110 C.3   136  GLY136      0.1956
    107  C         49.5650   41.6020   28.6480 C.2   136  GLY136      0.2612
    108  O         50.3580   42.3400   29.2450 O.2   136  GLY136     -0.2717
    109  N         49.2930   40.3600   29.0500 N.am  137  CYS137     -0.1970
    110  CA        49.9210   39.7750   30.2300 C.3   137  CYS137      0.1712
    111  C         51.4460   39.6710   30.1290 C.2   137  CYS137      0.2296
    112  O         52.1320   39.4830   31.1350 O.2   137  CYS137     -0.2864
    113  CB        49.3160   38.3950   30.5120 C.3   137  CYS137      0.0983
    114  SG        47.5920   38.4170   31.0860 S.3   137  CYS137     -0.0798
    115  N         41.4690   45.8580   34.3970 N.3   167  CYS167     -0.1221
    116  CA        40.8060   44.7640   33.6800 C.3   167  CYS167      0.1808
    117  C         39.2950   44.7530   33.8550 C.2   167  CYS167      0.2601
    118  O         38.5800   44.2690   32.9930 O.2   167  CYS167     -0.2717
    119  CB        41.3950   43.4000   34.0900 C.3   167  CYS167      0.0970
    120  SG        43.1920   43.2250   33.8210 S.3   167  CYS167     -0.0800
    121  N         38.8180   45.2820   34.9730 N.am  168  SER168     -0.1952
    122  CA        37.3950   45.3340   35.2330 C.3   168  SER168      0.1924
    123  C         36.6810   46.1550   34.1750 C.2   168  SER168      0.2314
    124  O         35.4880   45.9920   33.9660 O.2   168  SER168     -0.2863
    125  CB        37.1320   45.9510   36.6020 C.3   168  SER168      0.2116
    126  OG        37.5850   47.2890   36.6390 O.3   168  SER168     -0.2180
    127  N         36.9750   45.8790   31.1510 N.3   170  CYS170     -0.1221
    128  CA        36.8610   45.0710   29.9550 C.3   170  CYS170      0.1808
    129  C         35.8450   43.9760   30.2050 C.2   170  CYS170      0.2601
    130  O         35.7690   43.0180   29.4620 O.2   170  CYS170     -0.2717
    131  CB        38.2200   44.4830   29.5660 C.3   170  CYS170      0.0970
    132  SG        39.3550   45.7090   28.8440 S.3   170  CYS170     -0.0800
    133  N         35.0530   44.1290   31.2620 N.am  171  TYR171     -0.1976
    134  CA        34.0110   43.1510   31.5800 C.3   171  TYR171      0.1639
    135  C         32.9100   43.2760   30.5280 C.2   171  TYR171      0.2290
    136  O         32.4010   44.3750   30.2950 O.2   171  TYR171     -0.2864
    137  CB        33.4250   43.4210   32.9710 C.3   171  TYR171      0.0560
    138  CG        32.1870   42.6000   33.2680 C.ar  171  TYR171     -0.0198
    139  CD1       32.2440   41.1970   33.3300 C.ar  171  TYR171     -0.0009
    140  CD2       30.9510   43.2150   33.4270 C.ar  171  TYR171     -0.0009
    141  CE1       31.0890   40.4400   33.5340 C.ar  171  TYR171      0.0417
    142  CE2       29.7980   42.4730   33.6310 C.ar  171  TYR171      0.0417
    143  CZ        29.8700   41.0890   33.6800 C.ar  171  TYR171      0.1957
    144  OH        28.7160   40.3650   33.8410 O.3   171  TYR171     -0.2866
    145  N         33.4670   33.3940   31.5760 N.3   181  LEU181     -0.1245
    146  CA        33.1030   33.2610   32.9780 C.3   181  LEU181      0.1561
    147  C         34.3400   33.0590   33.8480 C.2   181  LEU181      0.2260
    148  O         34.4530   33.6360   34.9270 O.2   181  LEU181     -0.2867
    149  CB        32.1550   32.0860   33.1510 C.3   181  LEU181      0.0270
    150  CG        30.6810   32.3640   32.8560 C.3   181  LEU181      0.0019
    151  CD1       30.5020   33.0330   31.5200 C.3   181  LEU181      0.0001
    152  CD2       29.9410   31.0500   32.9210 C.3   181  LEU181      0.0001
    153  N         37.5190   33.9610   33.1860 N.3   183  CYS183     -0.1221
    154  CA        38.2080   35.2360   33.1790 C.3   183  CYS183      0.1808
    155  C         37.5690   36.2660   34.0870 C.2   183  CYS183      0.2601
    156  O         38.2780   37.0370   34.7290 O.2   183  CYS183     -0.2717
    157  CB        38.3170   35.7720   31.7510 C.3   183  CYS183      0.0970
    158  SG        39.4860   34.8360   30.7180 S.3   183  CYS183     -0.0800
    159  N         36.2440   36.2690   34.1690 N.am  184  ASN184     -0.1974
    160  CA        35.5720   37.2220   35.0300 C.3   184  ASN184      0.1688
    161  C         35.8400   36.9850   36.5220 C.2   184  ASN184      0.2292
    162  O         35.5780   37.8680   37.3470 O.2   184  ASN184     -0.2864
    163  CB        34.0640   37.2150   34.7580 C.3   184  ASN184      0.1181
    164  CG        33.7180   37.7000   33.3570 C.2   184  ASN184      0.2629
    165  OD1       34.5680   38.2470   32.6410 O.2   184  ASN184     -0.2716
    166  ND2       32.4640   37.5070   32.9630 N.am  184  ASN184     -0.0877
    167  N         40.7260   38.1170   36.5850 N.3   187  PHE187     -0.1241
    168  CA        41.4110   39.3970   36.4150 C.3   187  PHE187      0.1605
    169  C         40.9950   40.4930   37.3680 C.2   187  PHE187      0.2264
    170  O         39.8330   40.5800   37.7430 O.2   187  PHE187     -0.2867
    171  CB        41.2510   39.9030   34.9880 C.3   187  PHE187      0.0534
    172  CG        41.8840   39.0230   33.9640 C.ar  187  PHE187     -0.0203
    173  CD1       41.2120   37.9010   33.4860 C.ar  187  PHE187     -0.0042
    174  CD2       43.1650   39.2880   33.5020 C.ar  187  PHE187     -0.0042
    175  CE1       41.8100   37.0510   32.5630 C.ar  187  PHE187     -0.0003
    176  CE2       43.7790   38.4410   32.5770 C.ar  187  PHE187     -0.0003
    177  CZ        43.1030   37.3180   32.1060 C.ar  187  PHE187     -0.0000
    178  N         42.3760   39.6380   21.8010 N.3   223  TYR223     -0.1241
    179  CA        41.2310   40.5060   21.9560 C.3   223  TYR223      0.1605
    180  C         40.3450   40.4640   20.7120 C.2   223  TYR223      0.2264
    181  O         40.8430   40.4490   19.6000 O.2   223  TYR223     -0.2867
    182  CB        41.6990   41.9610   22.1480 C.3   223  TYR223      0.0534
    183  CG        41.8580   42.4300   23.5750 C.ar  223  TYR223     -0.0201
    184  CD1       42.6310   43.5510   23.8650 C.ar  223  TYR223     -0.0009
    185  CD2       41.2160   41.7840   24.6250 C.ar  223  TYR223     -0.0009
    186  CE1       42.7600   44.0250   25.1620 C.ar  223  TYR223      0.0417
    187  CE2       41.3360   42.2400   25.9340 C.ar  223  TYR223      0.0417
    188  CZ        42.1090   43.3710   26.1940 C.ar  223  TYR223      0.1957
    189  OH        42.2100   43.8730   27.4720 O.3   223  TYR223     -0.2866
    190  N         38.0810   39.6840   25.6630 N.3   232  PHE232     -0.1241
    191  CA        39.2180   38.8110   25.8700 C.3   232  PHE232      0.1605
    192  C         38.9310   37.3420   25.5480 C.2   232  PHE232      0.2264
    193  O         37.9620   36.7660   26.0380 O.2   232  PHE232     -0.2867
    194  CB        39.6930   38.9360   27.3220 C.3   232  PHE232      0.0534
    195  CG        41.0100   38.2780   27.5810 C.ar  232  PHE232     -0.0203
    196  CD1       42.1470   38.6820   26.8870 C.ar  232  PHE232     -0.0042
    197  CD2       41.1210   37.2510   28.5130 C.ar  232  PHE232     -0.0042
    198  CE1       43.3830   38.0730   27.1180 C.ar  232  PHE232     -0.0003
    199  CE2       42.3630   36.6340   28.7470 C.ar  232  PHE232     -0.0003
    200  CZ        43.4850   37.0490   28.0510 C.ar  232  PHE232     -0.0000
    201  N         47.2750   41.5580   34.8700 N.3   304  ALA304     -0.1245
    202  CA        48.0250   41.6310   33.6250 C.3   304  ALA304      0.1562
    203  C         49.4960   41.9940   33.7650 C.2   304  ALA304      0.2260
    204  O         50.2040   41.4490   34.6050 O.2   304  ALA304     -0.2867
    205  CB        47.3470   42.6020   32.6680 C.3   304  ALA304      0.0290
@<TRIPOS>BOND
     1   181   180    2
     2   180   179    1
     3   178   179    1
     4   179   182    1
     5   182   183    1
     6   183   184   ar
     7   183   185   ar
     8   184   186   ar
     9   185   187   ar
    10   186   188   ar
    11   192   191    1
    12   192   193    2
    13   190   191    1
    14   191   194    1
    15   187   188   ar
    16   188   189    1
    17   105   106    1
    18   196   198   ar
    19   196   195   ar
    20    95    94    2
    21    96    93    1
    22    96    97    1
    23   198   200   ar
    24   194   195    1
    25    93    94    1
    26    93    92    1
    27   106   107    1
    28   195   197   ar
    29    94    98   am
    30   200   199   ar
    31   197   199   ar
    32   107   109   am
    33   107   108    2
    34    98    99    1
    35   132   131    1
    36   100    99    1
    37   100   101    2
    38   109   110    1
    39    99   102    1
    40   130   129    2
    41   131   128    1
    42   128   129    1
    43   128   127    1
    44   111   110    1
    45   111   112    2
    46   129   133   am
    47   110   113    1
    48   136   135    2
    49   113   114    1
    50   135   134    1
    51   158   157    1
    52   102   104    1
    53   102   103    1
    54   133   134    1
    55   151   150    1
    56   145   146    1
    57   134   137    1
    58   157   154    1
    59   177   175   ar
    60   177   176   ar
    61   175   173   ar
    62   176   174   ar
    63   165   164    2
    64   205   202    1
    65    47    49   ar
    66    47    45   ar
    67    49    48   ar
    68   150   152    1
    69   150   149    1
    70   166   164   am
    71   137   138    1
    72   146   149    1
    73   146   147    1
    74   118   117    2
    75   154   153    1
    76   154   155    1
    77   138   139   ar
    78   138   140   ar
    79   139   141   ar
    80   164   163    1
    81   140   142   ar
    82   173   172   ar
    83   174   172   ar
    84   141   143   ar
    85   202   203    1
    86   202   201    1
    87   142   143   ar
    88   116   117    1
    89   116   119    1
    90   116   115    1
    91   143   144    1
    92   203   204    2
    93   120   119    1
    94   147   148    2
    95   117   121   am
    96   172   171    1
    97   124   123    2
    98    45    44    1
    99    45    46   ar
   100    48    46   ar
   101   155   159   am
   102   155   156    2
   103   159   160    1
   104   123   122    1
   105    87    86    2
   106    32    31    2
   107    44    41    1
   108   163   160    1
   109    43    42    2
   110   121   122    1
   111    39    37    1
   112   171   168    1
   113    41    42    1
   114    41    40    1
   115   160   161    1
   116    86    85    1
   117   122   125    1
   118    80    79    2
   119    31    40   am
   120    31    30    1
   121    37    36    2
   122    37    38    1
   123    85    84    1
   124    85    88    1
   125    79    84   am
   126    79    78    1
   127   168   167    1
   128   168   169    1
   129    36    35    1
   130   161   162    2
   131   125   126    1
   132    33    30    1
   133    33    34    1
   134    30    29    1
   135    78    81    1
   136    78    77    1
   137    82    81    1
   138    88    89    1
   139   169   170    2
   140    34    35    1
   141    27    26    2
   142    91    89    1
   143    81    83    1
   144    89    90    1
   145    25    26    1
   146    25    28    1
   147    25    24    1
   148    59    58    1
   149    19    18    2
   150    24    18   am
   151    58    60    1
   152    58    57    2
   153    72    71    2
   154    18    17    1
   155    67    65    1
   156    65    62    1
   157    65    66    1
   158    56    57    1
   159    56    55    1
   160    15    13    1
   161    20    17    1
   162    20    21    1
   163    62    63    1
   164    62    61    1
   165    76    74    1
   166    71    70    1
   167    17    16    1
   168    63    64    2
   169    12    11    2
   170    68    66    1
   171    22    21    1
   172    70    69    1
   173    70    73    1
   174    21    23    1
   175    55    54    1
   176    74    73    1
   177    13    14    1
   178    13    10    1
   179    11    10    1
   180    54    51    1
   181     8     6    1
   182    10     9    1
   183    73    75    1
   184     7     5    1
   185    51    52    1
   186    51    50    1
   187     6     5    1
   188    52    53    2
   189     5     2    1
   190     4     3    2
   191     2     1    1
   192     2     3    1
