@<TRIPOS>MOLECULE
tmp/1u11B00.pdb
 93 90 0 0 0
SMALL
GASTEIGER

@<TRIPOS>ATOM
      1  N         32.1390   64.8380 -152.7270 N.3    12  GLY12      -0.1210
      2  CA        33.0590   65.9580 -152.7010 C.3    12  GLY12       0.1956
      3  C         33.4420   66.5670 -154.0350 C.2    12  GLY12       0.2612
      4  O         33.6600   67.7750 -154.1140 O.2    12  GLY12      -0.2717
      5  N         33.5170   65.7480 -155.0800 N.am   13  SER13      -0.1952
      6  CA        33.9110   66.2480 -156.3940 C.3    13  SER13       0.1924
      7  C         33.5110   65.3220 -157.5360 C.2    13  SER13       0.2314
      8  O         32.9790   64.2360 -157.3200 O.2    13  SER13      -0.2863
      9  CB        35.4250   66.4310 -156.4380 C.3    13  SER13       0.2116
     10  OG        36.0640   65.1660 -156.3940 O.3    13  SER13      -0.2180
     11  N         35.5110   63.7690 -159.3810 N.3    15  SER15      -0.1202
     12  CA        36.3790   62.5970 -159.3220 C.3    15  SER15       0.2020
     13  C         35.7500   61.4730 -158.5050 C.2    15  SER15       0.2618
     14  O         36.0930   60.3040 -158.6810 O.2    15  SER15      -0.2717
     15  CB        37.7430   62.9660 -158.7270 C.3    15  SER15       0.2103
     16  OG        37.6280   63.3820 -157.3780 O.3    15  SER15      -0.2182
     17  N         34.8290   61.8250 -157.6130 N.am   16  ASP16      -0.1973
     18  CA        34.1620   60.8250 -156.7860 C.3    16  ASP16       0.1709
     19  C         32.9860   60.1760 -157.5030 C.2    16  ASP16       0.2293
     20  O         32.4580   59.1650 -157.0430 O.2    16  ASP16      -0.2864
     21  CB        33.6440   61.4440 -155.4830 C.3    16  ASP16       0.1436
     22  CG        34.7490   61.9980 -154.6140 C.2    16  ASP16       0.3671
     23  OD1       35.8810   61.4730 -154.6680 O.co2  16  ASP16      -0.2456
     24  OD2       34.4710   62.9520 -153.8600 O.co2  16  ASP16      -0.2456
     25  N         31.2590   70.0180 -151.4850 N.3    40  SER40      -0.1202
     26  CA        32.6060   69.9100 -150.9350 C.3    40  SER40       0.2020
     27  C         32.6790   70.4690 -149.5220 C.2    40  SER40       0.2619
     28  O         32.3730   71.6340 -149.2910 O.2    40  SER40      -0.2717
     29  CB        33.5990   70.6600 -151.8270 C.3    40  SER40       0.2103
     30  OG        34.8910   70.6740 -151.2440 O.3    40  SER40      -0.2182
     31  N         33.0850   69.6320 -148.5750 N.am   41  ALA41      -0.1965
     32  CA        33.2010   70.0730 -147.1930 C.3    41  ALA41       0.1728
     33  C         34.2890   71.1350 -147.0730 C.2    41  ALA41       0.2616
     34  O         34.1860   72.0590 -146.2670 O.2    41  ALA41      -0.2715
     35  CB        33.5340   68.8860 -146.2910 C.3    41  ALA41       0.0334
     36  N         35.3220   71.0120 -147.8970 N.am   42  HIS42      -0.1959
     37  CA        36.4450   71.9350 -147.8370 C.3    42  HIS42       0.1787
     38  C         36.3770   73.1460 -148.7550 C.2    42  HIS42       0.2620
     39  O         36.8860   74.2120 -148.4110 O.2    42  HIS42      -0.2715
     40  CB        37.7320   71.1430 -148.0630 C.3    42  HIS42       0.0785
     41  CG        37.9610   70.0970 -147.0180 C.ar   42  HIS42       0.0821
     42  ND1       38.4170   68.8310 -147.3120 N.ar   42  HIS42      -0.2267
     43  CD2       37.7490   70.1200 -145.6800 C.ar   42  HIS42       0.1154
     44  CE1       38.4710   68.1160 -146.2010 C.ar   42  HIS42       0.1986
     45  NE2       38.0700   68.8750 -145.1970 N.ar   42  HIS42      -0.2212
     46  N         35.7380   72.9980 -149.9100 N.am   43  ARG43      -0.1977
     47  CA        35.6250   74.1160 -150.8390 C.3    43  ARG43       0.1597
     48  C         34.2860   74.8430 -150.7420 C.2    43  ARG43       0.2287
     49  O         34.1960   76.0230 -151.0720 O.2    43  ARG43      -0.2864
     50  CB        35.8640   73.6430 -152.2710 C.3    43  ARG43       0.0334
     51  CG        37.2880   73.1860 -152.5210 C.3    43  ARG43       0.0492
     52  CD        37.5360   72.9250 -153.9950 C.3    43  ARG43       0.2205
     53  NE        38.9330   72.5950 -154.2560 N.pl3  43  ARG43      -0.0865
     54  CZ        39.4610   72.4800 -155.4710 C.cat  43  ARG43       0.5346
     55  NH1       38.7060   72.6690 -156.5470 N.pl3  43  ARG43       0.1354
     56  NH2       40.7440   72.1760 -155.6120 N.pl3  43  ARG43       0.1354
     57  N         33.4760   60.6150 -150.1230 N.3    67  ALA67      -0.1231
     58  CA        34.6300   61.5050 -150.1750 C.3    67  ALA67       0.1694
     59  C         35.9160   60.7050 -150.0010 C.2    67  ALA67       0.2592
     60  O         35.8950   59.5980 -149.4560 O.2    67  ALA67      -0.2718
     61  CB        34.5250   62.5670 -149.0790 C.3    67  ALA67       0.0304
     62  N         37.0300   61.2720 -150.4610 N.am   68  GLY68      -0.1957
     63  CA        38.3140   60.5970 -150.3460 C.3    68  GLY68       0.1869
     64  C         39.3910   61.4340 -149.6730 C.2    68  GLY68       0.2309
     65  O         39.2370   62.6500 -149.5210 O.2    68  GLY68      -0.2863
     66  N         41.3500   63.1240 -146.8480 N.3    70  ALA70      -0.1231
     67  CA        40.9260   63.6120 -145.5390 C.3    70  ALA70       0.1694
     68  C         39.4350   63.8200 -145.7790 C.2    70  ALA70       0.2592
     69  O         38.9760   64.9400 -146.0060 O.2    70  ALA70      -0.2718
     70  CB        41.6110   64.9380 -145.2160 C.3    70  ALA70       0.0304
     71  N         38.6940   62.7150 -145.7590 N.am   71  ALA71      -0.1966
     72  CA        37.2590   62.7110 -146.0260 C.3    71  ALA71       0.1728
     73  C         36.4270   63.2110 -144.8560 C.2    71  ALA71       0.2616
     74  O         36.2000   62.4840 -143.8900 O.2    71  ALA71      -0.2715
     75  CB        36.8230   61.3070 -146.4230 C.3    71  ALA71       0.0334
     76  N         35.9600   64.4520 -144.9630 N.am   72  HIS72      -0.1959
     77  CA        35.1750   65.0760 -143.9020 C.3    72  HIS72       0.1787
     78  C         33.7010   65.2820 -144.2390 C.2    72  HIS72       0.2620
     79  O         32.8940   65.5570 -143.3540 O.2    72  HIS72      -0.2715
     80  CB        35.7950   66.4290 -143.5430 C.3    72  HIS72       0.0785
     81  CG        37.2250   66.3440 -143.1070 C.ar   72  HIS72       0.0821
     82  ND1       37.9980   67.4620 -142.8800 N.ar   72  HIS72      -0.2267
     83  CD2       38.0150   65.2790 -142.8350 C.ar   72  HIS72       0.1154
     84  CE1       39.2040   67.0890 -142.4880 C.ar   72  HIS72       0.1986
     85  NE2       39.2400   65.7690 -142.4520 N.ar   72  HIS72      -0.2212
     86  N         33.3460   65.1460 -145.5120 N.am   73  LEU73      -0.1977
     87  CA        31.9650   65.3540 -145.9380 C.3    73  LEU73       0.1596
     88  C         30.9110   64.5650 -145.1510 C.2    73  LEU73       0.2287
     89  O         29.9470   65.1440 -144.6520 O.2    73  LEU73      -0.2864
     90  CB        31.8350   65.0530 -147.4370 C.3    73  LEU73       0.0297
     91  CG        30.4510   65.2620 -148.0580 C.3    73  LEU73       0.0022
     92  CD1       30.0210   66.7150 -147.8980 C.3    73  LEU73       0.0001
     93  CD2       30.4960   64.8770 -149.5350 C.3    73  LEU73       0.0001
@<TRIPOS>BOND
     1    11    12    1
     2    12    15    1
     3    12    13    1
     4    15    16    1
     5    14    13    2
     6    13    17   am
     7    17    18    1
     8     7     8    2
     9     7     6    1
    10    19    20    2
    11    19    18    1
    12    18    21    1
    13    55    54    1
    14     9    10    1
    15     9     6    1
    16     6     5    1
    17    56    54    1
    18    21    22    1
    19    54    53    2
    20     5     3   am
    21    23    22   ar
    22    22    24   ar
    23    53    52    1
    24     4     3    2
    25     3     2    1
    26    52    51    1
    27     1     2    1
    28    51    50    1
    29    50    47    1
    30    29    30    1
    31    29    26    1
    32    25    26    1
    33    49    48    2
    34    26    27    1
    35    47    48    1
    36    47    46    1
    37    62    63    1
    38    62    59   am
    39    63    64    1
    40    58    57    1
    41    58    59    1
    42    58    61    1
    43    59    60    2
    44    46    38   am
    45    64    65    2
    46    93    91    1
    47    27    28    2
    48    27    31   am
    49    38    39    2
    50    38    37    1
    51    31    32    1
    52    40    37    1
    53    40    41    1
    54    91    92    1
    55    91    90    1
    56    36    37    1
    57    36    33   am
    58    90    87    1
    59    42    41   ar
    60    42    44   ar
    61    32    33    1
    62    32    35    1
    63    33    34    2
    64    41    43   ar
    65    66    67    1
    66    75    72    1
    67    44    45   ar
    68    72    71    1
    69    72    73    1
    70    69    68    2
    71    87    86    1
    72    87    88    1
    73    68    71   am
    74    68    67    1
    75    43    45   ar
    76    67    70    1
    77    86    78   am
    78    88    89    2
    79    76    73   am
    80    76    77    1
    81    73    74    2
    82    78    77    1
    83    78    79    2
    84    77    80    1
    85    80    81    1
    86    81    82   ar
    87    81    83   ar
    88    82    84   ar
    89    83    85   ar
    90    84    85   ar
