@<TRIPOS>MOLECULE
tmp/1u17B00.pdb
 213 194 0 0 0
SMALL
GASTEIGER

@<TRIPOS>ATOM
      1  N         10.5820   53.5790   27.3550 N.3    26  VAL26      -0.1245
      2  CA         9.7790   52.4560   27.7800 C.3    26  VAL26       0.1561
      3  C          8.3510   52.9140   27.6870 C.2    26  VAL26       0.2260
      4  O          8.0330   53.9980   28.2010 O.2    26  VAL26      -0.2867
      5  CB        10.0560   52.0670   29.2620 C.3    26  VAL26       0.0252
      6  CG1        9.1030   50.9510   29.7410 C.3    26  VAL26       0.0019
      7  CG2       11.5610   51.6740   29.4060 C.3    26  VAL26       0.0019
      8  N          5.5500   47.7640   30.4550 N.3    29  TYR29      -0.1241
      9  CA         6.4880   46.8470   31.0750 C.3    29  TYR29       0.1605
     10  C          5.7470   45.7690   31.8640 C.2    29  TYR29       0.2264
     11  O          4.5720   45.8940   32.2020 O.2    29  TYR29      -0.2867
     12  CB         7.5680   47.5740   31.9380 C.3    29  TYR29       0.0534
     13  CG         6.9770   48.0930   33.2110 C.ar   29  TYR29      -0.0201
     14  CD1        6.1280   49.1900   33.2000 C.ar   29  TYR29      -0.0009
     15  CD2        7.1470   47.3860   34.4030 C.ar   29  TYR29      -0.0009
     16  CE1        5.4970   49.6370   34.3640 C.ar   29  TYR29       0.0417
     17  CE2        6.5260   47.8340   35.5730 C.ar   29  TYR29       0.0417
     18  CZ         5.6960   48.9400   35.5220 C.ar   29  TYR29       0.1957
     19  OH         5.1120   49.3720   36.6770 O.3    29  TYR29      -0.2866
     20  N          4.3810   51.3460   42.1410 N.3    39  LYS39      -0.1245
     21  CA         4.4750   52.7570   41.7820 C.3    39  LYS39       0.1561
     22  C          4.5990   52.9680   40.2730 C.2    39  LYS39       0.2260
     23  O          5.1770   52.1460   39.5430 O.2    39  LYS39      -0.2867
     24  CB         5.6410   53.4310   42.5100 C.3    39  LYS39       0.0271
     25  CG         5.2890   54.7920   43.1380 C.3    39  LYS39       0.0035
     26  CD         6.2550   55.1080   44.2900 C.3    39  LYS39       0.0206
     27  CE         6.1360   54.0890   45.4420 C.3    39  LYS39       0.1093
     28  NZ         6.7760   54.5530   46.7320 N.3    39  LYS39      -0.1314
     29  N          6.0870   54.8580   37.2350 N.3    41  TYR41      -0.1241
     30  CA         7.3340   55.5260   36.8420 C.3    41  TYR41       0.1605
     31  C          7.3300   55.7550   35.3560 C.2    41  TYR41       0.2264
     32  O          6.5150   55.1990   34.6420 O.2    41  TYR41      -0.2867
     33  CB         8.5570   54.6610   37.2130 C.3    41  TYR41       0.0534
     34  CG         8.8780   54.6460   38.6930 C.ar   41  TYR41      -0.0201
     35  CD1        8.5050   53.5560   39.5100 C.ar   41  TYR41      -0.0009
     36  CD2        9.5160   55.7340   39.2950 C.ar   41  TYR41      -0.0009
     37  CE1        8.7860   53.5580   40.8920 C.ar   41  TYR41       0.0417
     38  CE2        9.8150   55.7370   40.6530 C.ar   41  TYR41       0.0417
     39  CZ         9.4400   54.6610   41.4480 C.ar   41  TYR41       0.1957
     40  OH         9.7290   54.7110   42.7850 O.3    41  TYR41      -0.2866
     41  N         10.4720   55.8040   32.2300 N.3    43  ALA43      -0.1245
     42  CA        11.8280   55.2960   32.0640 C.3    43  ALA43       0.1562
     43  C         12.1920   55.4010   30.6060 C.2    43  ALA43       0.2260
     44  O         11.3130   55.2800   29.7190 O.2    43  ALA43      -0.2867
     45  CB        11.9480   53.7910   32.6020 C.3    43  ALA43       0.0290
     46  N         16.1620   55.1070   27.9660 N.3    45  LEU45      -0.1245
     47  CA        17.5930   54.8010   27.9640 C.3    45  LEU45       0.1561
     48  C         18.1400   55.2210   26.6230 C.2    45  LEU45       0.2260
     49  O         17.3860   55.3980   25.6640 O.2    45  LEU45      -0.2867
     50  CB        17.8610   53.3050   28.1500 C.3    45  LEU45       0.0270
     51  CG        17.2100   52.2590   27.2240 C.3    45  LEU45       0.0019
     52  CD1       18.1350   51.9940   25.9520 C.3    45  LEU45       0.0001
     53  CD2       16.7970   50.9530   27.9760 C.3    45  LEU45       0.0001
     54  N         25.1970   51.9620   27.8300 N.3    56  GLU56      -0.1245
     55  CA        23.8030   52.3250   28.0440 C.3    56  GLU56       0.1567
     56  C         23.7000   53.3420   29.1540 C.2    56  GLU56       0.2260
     57  O         24.2970   53.1720   30.2490 O.2    56  GLU56      -0.2867
     58  CB        23.0050   51.1040   28.4580 C.3    56  GLU56       0.0388
     59  CG        21.6210   51.1190   27.9390 C.3    56  GLU56       0.1160
     60  CD        21.0770   49.7180   27.7710 C.2    56  GLU56       0.3649
     61  OE1       20.9100   49.0050   28.8180 O.co2  56  GLU56      -0.2457
     62  OE2       20.7890   49.3630   26.6290 O.co2  56  GLU56      -0.2457
     63  N         20.6950   55.1900   31.5260 N.3    58  LEU58      -0.1245
     64  CA        19.3150   54.9300   31.9620 C.3    58  LEU58       0.1561
     65  C         18.7560   56.1400   32.6590 C.2    58  LEU58       0.2260
     66  O         19.5120   56.8650   33.2800 O.2    58  LEU58      -0.2867
     67  CB        19.3280   53.8070   32.9970 C.3    58  LEU58       0.0270
     68  CG        19.3370   52.3400   32.6480 C.3    58  LEU58       0.0019
     69  CD1       19.4310   51.8160   31.1050 C.3    58  LEU58       0.0001
     70  CD2       20.1370   51.5330   33.6580 C.3    58  LEU58       0.0001
     71  N         15.2190   57.3580   34.9930 N.3    60  CYS60      -0.1235
     72  CA        13.9530   57.0050   35.6350 C.3    60  CYS60       0.1677
     73  C         13.3690   58.2620   36.2560 C.2    60  CYS60       0.2270
     74  O         14.0950   59.0150   36.9100 O.2    60  CYS60      -0.2867
     75  CB        14.1710   55.9860   36.7560 C.3    60  CYS60       0.0956
     76  SG        12.5860   55.4190   37.4190 S.3    60  CYS60      -0.0801
     77  N         16.4270   59.6150   38.5840 N.3    69  PHE69      -0.1241
     78  CA        17.8110   59.1030   38.6900 C.3    69  PHE69       0.1605
     79  C         18.3700   58.5580   37.3680 C.2    69  PHE69       0.2264
     80  O         17.6420   58.2080   36.4570 O.2    69  PHE69      -0.2867
     81  CB        18.0140   58.1360   39.8460 C.3    69  PHE69       0.0534
     82  CG        17.2330   56.8420   39.7230 C.ar   69  PHE69      -0.0203
     83  CD1       15.8910   56.7910   40.1120 C.ar   69  PHE69      -0.0042
     84  CD2       17.8650   55.6710   39.2630 C.ar   69  PHE69      -0.0042
     85  CE1       15.1720   55.5980   40.0350 C.ar   69  PHE69      -0.0003
     86  CE2       17.1690   54.4720   39.1760 C.ar   69  PHE69      -0.0003
     87  CZ        15.8250   54.4170   39.5480 C.ar   69  PHE69      -0.0000
     88  N         21.8160   56.3700   35.4670 N.3    71  ASP71      -0.1239
     89  CA        22.8280   55.3450   35.6140 C.3    71  ASP71       0.1674
     90  C         23.5110   55.2570   34.2560 C.2    71  ASP71       0.2266
     91  O         22.8540   55.4810   33.2190 O.2    71  ASP71      -0.2867
     92  CB        22.2040   53.9580   35.8950 C.3    71  ASP71       0.1410
     93  CG        21.6630   53.8310   37.3050 C.2    71  ASP71       0.3668
     94  OD1       22.4000   53.4150   38.2240 O.co2  71  ASP71      -0.2456
     95  OD2       20.4800   54.0720   37.5790 O.co2  71  ASP71      -0.2456
     96  N         26.6210   48.8220   36.3940 N.3    87  PHE87      -0.1241
     97  CA        26.1290   50.1900   36.3460 C.3    87  PHE87       0.1605
     98  C         26.7280   51.0930   37.4220 C.2    87  PHE87       0.2264
     99  O         27.0900   50.6000   38.4960 O.2    87  PHE87      -0.2867
    100  CB        24.5820   50.1530   36.4410 C.3    87  PHE87       0.0534
    101  CG        24.0400   49.4290   37.6410 C.ar   87  PHE87      -0.0203
    102  CD1       23.7920   50.1060   38.8420 C.ar   87  PHE87      -0.0042
    103  CD2       23.7040   48.0510   37.5730 C.ar   87  PHE87      -0.0042
    104  CE1       23.2330   49.4510   39.9680 C.ar   87  PHE87      -0.0003
    105  CE2       23.1790   47.3950   38.7040 C.ar   87  PHE87      -0.0003
    106  CZ        22.9310   48.0870   39.9020 C.ar   87  PHE87      -0.0000
    107  N         25.5850   54.7020   39.3970 N.3    89  LYS89      -0.1245
    108  CA        24.5710   55.7090   39.5520 C.3    89  LYS89       0.1561
    109  C         25.2670   57.0420   39.4470 C.2    89  LYS89       0.2260
    110  O         26.3270   57.2520   40.0570 O.2    89  LYS89      -0.2867
    111  CB        23.9280   55.6060   40.9330 C.3    89  LYS89       0.0271
    112  CG        22.6030   56.3620   41.0690 C.3    89  LYS89       0.0035
    113  CD        21.8650   55.9280   42.4280 C.3    89  LYS89       0.0206
    114  CE        20.4590   56.5470   42.4150 C.3    89  LYS89       0.1093
    115  NZ        19.7630   56.6950   43.7800 N.3    89  LYS89      -0.1314
    116  N         27.2140   56.4600   42.9140 N.3    98  VAL98      -0.1245
    117  CA        27.5450   55.1120   43.4010 C.3    98  VAL98       0.1561
    118  C         28.4180   54.4700   42.3220 C.2    98  VAL98       0.2260
    119  O         28.0100   54.3480   41.1670 O.2    98  VAL98      -0.2867
    120  CB        26.2990   54.2010   43.6840 C.3    98  VAL98       0.0252
    121  CG1       26.7450   52.8200   44.1900 C.3    98  VAL98       0.0019
    122  CG2       25.3080   54.8130   44.7020 C.3    98  VAL98       0.0019
    123  N         23.2420   44.2650   35.7580 N.3   106  TYR106     -0.1241
    124  CA        22.0220   43.7300   35.1950 C.3   106  TYR106      0.1605
    125  C         22.3590   43.0230   33.9350 C.2   106  TYR106      0.2264
    126  O         23.3710   43.3120   33.3160 O.2   106  TYR106     -0.2867
    127  CB        20.9680   44.7870   34.9780 C.3   106  TYR106      0.0534
    128  CG        21.2850   45.9110   34.0030 C.ar  106  TYR106     -0.0201
    129  CD1       20.9310   45.8310   32.6080 C.ar  106  TYR106     -0.0009
    130  CD2       21.8730   47.1110   34.4610 C.ar  106  TYR106     -0.0009
    131  CE1       21.2140   46.9240   31.7250 C.ar  106  TYR106      0.0417
    132  CE2       22.1100   48.2040   33.5800 C.ar  106  TYR106      0.0417
    133  CZ        21.7790   48.1150   32.2290 C.ar  106  TYR106      0.1957
    134  OH        22.0750   49.2030   31.3990 O.3   106  TYR106     -0.2866
    135  N         20.8330   41.8580   30.2150 N.3   108  PHE108     -0.1241
    136  CA        19.6630   42.0770   29.3990 C.3   108  PHE108      0.1605
    137  C         19.7540   41.4690   28.0230 C.2   108  PHE108      0.2264
    138  O         20.8510   41.3470   27.4170 O.2   108  PHE108     -0.2867
    139  CB        19.2470   43.5400   29.3370 C.3   108  PHE108      0.0534
    140  CG        20.0420   44.3710   28.3850 C.ar  108  PHE108     -0.0203
    141  CD1       19.5930   44.6080   27.0810 C.ar  108  PHE108     -0.0042
    142  CD2       21.2050   44.9470   28.7980 C.ar  108  PHE108     -0.0042
    143  CE1       20.3170   45.3980   26.1930 C.ar  108  PHE108     -0.0003
    144  CE2       21.9350   45.7610   27.9380 C.ar  108  PHE108     -0.0003
    145  CZ        21.4950   45.9640   26.6000 C.ar  108  PHE108     -0.0000
    146  N         12.6030   43.9680   25.3390 N.3   120  ILE120     -0.1245
    147  CA        13.7970   43.5190   26.0440 C.3   120  ILE120      0.1561
    148  C         13.4240   42.8240   27.3520 C.2   120  ILE120      0.2260
    149  O         12.3390   43.0150   27.8860 O.2   120  ILE120     -0.2867
    150  CB        14.7390   44.7250   26.2580 C.3   120  ILE120      0.0252
    151  CG1       14.0820   45.7780   27.1420 C.3   120  ILE120      0.0019
    152  CG2       15.1180   45.3580   24.8910 C.3   120  ILE120      0.0019
    153  CD1       15.0800   46.4780   27.9760 C.3   120  ILE120      0.0001
    154  N         15.1890   42.2250   31.2930 N.3   122  THR122     -0.1218
    155  CA        16.2770   42.6290   32.1630 C.3   122  THR122      0.1862
    156  C         16.1940   41.8570   33.4650 C.2   122  THR122      0.2287
    157  O         15.1390   41.7100   33.9810 O.2   122  THR122     -0.2866
    158  CB        16.2120   44.1370   32.4640 C.3   122  THR122      0.1770
    159  OG1       16.3120   44.8480   31.2250 O.3   122  THR122     -0.2211
    160  CG2       17.4860   44.5700   33.1700 C.3   122  THR122      0.0375
    161  N         17.8700   42.4640   37.1630 N.3   124  LEU124     -0.1245
    162  CA        18.6350   43.3940   37.9980 C.3   124  LEU124      0.1561
    163  C         19.2330   42.6950   39.2270 C.2   124  LEU124      0.2260
    164  O         18.5060   42.0480   39.9590 O.2   124  LEU124     -0.2867
    165  CB        17.7020   44.5170   38.4580 C.3   124  LEU124      0.0270
    166  CG        18.1980   45.6350   39.4050 C.3   124  LEU124      0.0019
    167  CD1       19.4470   46.2270   38.7720 C.3   124  LEU124      0.0001
    168  CD2       17.1170   46.7300   39.7260 C.3   124  LEU124      0.0001
    169  N         21.4950   43.6160   42.5930 N.3   126  LYS126     -0.1245
    170  CA        22.0040   44.7390   43.3960 C.3   126  LYS126      0.1561
    171  C         22.4660   44.2370   44.7580 C.2   126  LYS126      0.2260
    172  O         21.6390   43.8660   45.5950 O.2   126  LYS126     -0.2867
    173  CB        20.9640   45.8760   43.5180 C.3   126  LYS126      0.0271
    174  CG        21.5390   47.2140   43.9800 C.3   126  LYS126      0.0035
    175  CD        20.7590   48.4050   43.4010 C.3   126  LYS126      0.0206
    176  CE        20.8140   49.6460   44.3170 C.3   126  LYS126      0.1093
    177  NZ        19.7440   49.6460   45.4090 N.3   126  LYS126     -0.1314
    178  N         17.2750   41.1330   42.2510 N.3   131  LEU131     -0.1245
    179  CA        16.1330   41.9720   42.5390 C.3   131  LEU131      0.1561
    180  C         15.1280   41.7510   41.4170 C.2   131  LEU131      0.2260
    181  O         14.5610   40.6450   41.2640 O.2   131  LEU131     -0.2867
    182  CB        16.5530   43.4340   42.6610 C.3   131  LEU131      0.0270
    183  CG        16.9940   43.9350   44.0370 C.3   131  LEU131      0.0019
    184  CD1       18.3730   43.3960   44.4010 C.3   131  LEU131      0.0001
    185  CD2       16.9950   45.4640   44.0820 C.3   131  LEU131      0.0001
    186  N         12.1150   41.6740   34.6050 N.3   134  LEU134     -0.1245
    187  CA        11.2450   42.6710   34.0080 C.3   134  LEU134      0.1561
    188  C         11.3440   42.6110   32.4900 C.2   134  LEU134      0.2260
    189  O         12.4300   42.5050   31.9800 O.2   134  LEU134     -0.2867
    190  CB        11.7510   44.0360   34.4770 C.3   134  LEU134      0.0270
    191  CG        10.9970   45.2710   34.0810 C.3   134  LEU134      0.0019
    192  CD1       11.0070   46.2850   35.2240 C.3   134  LEU134      0.0001
    193  CD2       11.6160   45.8360   32.7940 C.3   134  LEU134      0.0001
    194  N         10.2710   44.8360   28.9620 N.3   136  ALA136     -0.1245
    195  CA         9.8490   46.2080   28.6520 C.3   136  ALA136      0.1562
    196  C          9.7060   46.3180   27.1380 C.2   136  ALA136      0.2260
    197  O         10.5450   45.8190   26.3880 O.2   136  ALA136     -0.2867
    198  CB        10.8770   47.2560   29.1570 C.3   136  ALA136      0.0290
    199  N          9.8340   48.9700   24.1960 N.3   138  LEU138     -0.1245
    200  CA        10.4910   50.2630   23.9230 C.3   138  LEU138      0.1561
    201  C          9.9710   50.8160   22.6310 C.2   138  LEU138      0.2260
    202  O          9.5370   50.0440   21.7710 O.2   138  LEU138     -0.2867
    203  CB        12.0010   50.0270   23.7840 C.3   138  LEU138      0.0270
    204  CG        12.6690   49.2510   24.9050 C.3   138  LEU138      0.0019
    205  CD1       14.1620   49.2960   24.5880 C.3   138  LEU138      0.0001
    206  CD2       12.3060   49.8660   26.2970 C.3   138  LEU138      0.0001
    207  N          3.5400   52.8810   30.8720 N.3   167  THR167     -0.1218
    208  CA         4.3370   53.9410   31.5070 C.3   167  THR167      0.1862
    209  C          4.0480   55.1690   30.6910 C.2   167  THR167      0.2287
    210  O          3.7690   56.2580   31.2340 O.2   167  THR167     -0.2866
    211  CB         5.8660   53.6900   31.4550 C.3   167  THR167      0.1770
    212  OG1        6.2660   53.3060   30.1400 O.3   167  THR167     -0.2211
    213  CG2        6.2870   52.5250   32.3050 C.3   167  THR167      0.0375
@<TRIPOS>BOND
     1   202   201    2
     2   201   200    1
     3   203   200    1
     4   203   204    1
     5   200   199    1
     6   205   204    1
     7   152   150    1
     8   204   206    1
     9   146   147    1
    10    49    48    2
    11    52    51    1
    12   147   150    1
    13   147   148    1
    14   143   145   ar
    15   143   141   ar
    16   150   151    1
    17   197   196    2
    18   145   144   ar
    19    48    47    1
    20    62    60   ar
    21   141   140   ar
    22   196   195    1
    23   151   153    1
    24    51    53    1
    25    51    50    1
    26   148   149    2
    27     1     2    1
    28   138   137    2
    29     3     2    1
    30     3     4    2
    31    60    59    1
    32    60    61   ar
    33     2     5    1
    34    54    55    1
    35   144   142   ar
    36    59    58    1
    37    47    46    1
    38    47    50    1
    39   137   136    1
    40    55    58    1
    41    55    56    1
    42   140   142   ar
    43   140   139    1
    44   195   194    1
    45   195   198    1
    46    56    57    2
    47     5     7    1
    48     5     6    1
    49   139   136    1
    50   136   135    1
    51    44    43    2
    52   212   211    1
    53     8     9    1
    54    43    42    1
    55   209   210    2
    56   209   208    1
    57   207   208    1
    58     9    10    1
    59     9    12    1
    60    69    68    1
    61   159   158    1
    62   154   155    1
    63   134   133    1
    64   211   208    1
    65   211   213    1
    66    63    64    1
    67   131   133   ar
    68   131   129   ar
    69    10    11    2
    70    12    13    1
    71    64    65    1
    72    64    67    1
    73   189   188    2
    74    42    41    1
    75    42    45    1
    76   155   158    1
    77   155   156    1
    78   133   132   ar
    79   158   160    1
    80   188   187    1
    81   129   128   ar
    82    68    67    1
    83    68    70    1
    84    65    66    2
    85   193   191    1
    86    14    13   ar
    87    14    16   ar
    88    13    15   ar
    89    91    90    2
    90   126   125    2
    91   156   157    2
    92   132   130   ar
    93   125   124    1
    94   128   130   ar
    95   128   127    1
    96   187   190    1
    97   187   186    1
    98   191   190    1
    99   191   192    1
   100    90    89    1
   101    16    18   ar
   102    15    17   ar
   103    32    31    2
   104   127   124    1
   105    71    72    1
   106   124   123    1
   107    31    30    1
   108    88    89    1
   109    18    17   ar
   110    18    19    1
   111    89    92    1
   112    72    73    1
   113    72    75    1
   114    92    93    1
   115    73    74    2
   116    97    96    1
   117    97   100    1
   118    97    98    1
   119   100   101    1
   120    80    79    2
   121    75    76    1
   122    30    33    1
   123    30    29    1
   124   161   162    1
   125    33    34    1
   126    93    95   ar
   127    93    94   ar
   128    79    78    1
   129    98    99    2
   130   103   101   ar
   131   103   105   ar
   132   101   102   ar
   133   162   165    1
   134   162   163    1
   135   165   166    1
   136    77    78    1
   137    78    81    1
   138    34    36   ar
   139    34    35   ar
   140   105   106   ar
   141   167   166    1
   142   102   104   ar
   143    86    84   ar
   144    86    87   ar
   145   163   164    2
   146    84    82   ar
   147    36    38   ar
   148   107   108    1
   149   166   168    1
   150   109   108    1
   151   109   110    2
   152    35    37   ar
   153    23    22    2
   154    87    85   ar
   155   108   111    1
   156    82    81    1
   157    82    83   ar
   158   106   104   ar
   159    85    83   ar
   160    22    21    1
   161    38    39   ar
   162    37    39   ar
   163   111   112    1
   164   112   113    1
   165   119   118    2
   166   181   180    2
   167   180   179    1
   168    39    40    1
   169    21    20    1
   170    21    24    1
   171   178   179    1
   172   118   117    1
   173   114   113    1
   174   114   115    1
   175    24    25    1
   176   179   182    1
   177   169   170    1
   178   182   183    1
   179   116   117    1
   180    25    26    1
   181   170   173    1
   182   170   171    1
   183   117   120    1
   184   175   174    1
   185   175   176    1
   186   173   174    1
   187   120   121    1
   188   120   122    1
   189   183   185    1
   190   183   184    1
   191    26    27    1
   192   176   177    1
   193   171   172    2
   194    27    28    1
