@<TRIPOS>MOLECULE
tmp/1u18A01.pdb
 75 71 0 0 0
SMALL
GASTEIGER

@<TRIPOS>ATOM
      1  N         21.9830   31.8780   68.2860 N.3    30  ASP30      -0.1239
      2  CA        21.7550   32.1340   66.8850 C.3    30  ASP30       0.1674
      3  C         20.9000   33.4240   66.7600 C.2    30  ASP30       0.2266
      4  O         19.7400   33.4820   67.2410 O.2    30  ASP30      -0.2867
      5  CB        20.8950   30.9750   66.3420 C.3    30  ASP30       0.1410
      6  CG        20.7640   31.0140   64.8440 C.2    30  ASP30       0.3668
      7  OD1       21.0020   32.1350   64.2420 O.co2  30  ASP30      -0.2456
      8  OD2       20.4060   29.9730   64.2120 O.co2  30  ASP30      -0.2456
      9  N         19.8360   34.8620   64.1950 N.3    32  GLU32      -0.1231
     10  CA        18.8670   34.8460   63.0730 C.3    32  GLU32       0.1684
     11  C         18.4290   33.4010   62.8520 C.2    32  GLU32       0.2434
     12  O         18.7570   32.8190   61.8700 O.2    32  GLU32      -0.2733
     13  CB        19.5190   35.4500   61.8450 C.3    32  GLU32       0.0402
     14  CG        18.6320   35.6090   60.5990 C.3    32  GLU32       0.1161
     15  CD        19.4490   36.1150   59.3890 C.2    32  GLU32       0.3649
     16  OE1       20.2450   37.1400   59.5370 O.co2  32  GLU32      -0.2457
     17  OE2       19.3480   35.4520   58.3220 O.co2  32  GLU32      -0.2457
     18  N         17.6030   32.8670   63.7520 N.am   33  PRO33      -0.2718
     19  CA        17.1120   31.5050   63.6390 C.3    33  PRO33       0.1535
     20  C         16.2300   31.2720   62.3940 C.2    33  PRO33       0.2598
     21  O         15.5240   32.1190   61.9580 O.2    33  PRO33      -0.2715
     22  CB        16.3770   31.2830   64.9410 C.3    33  PRO33       0.0310
     23  CG        16.8440   32.3180   65.8630 C.3    33  PRO33       0.0237
     24  CD        16.9960   33.5140   64.9430 C.3    33  PRO33       0.0939
     25  N         16.3390   30.0770   61.8470 N.am   34  ASP34      -0.1972
     26  CA        15.5470   29.6510   60.7550 C.3    34  ASP34       0.1709
     27  C         14.1240   29.6990   61.2210 C.2    34  ASP34       0.2293
     28  O         13.8610   29.4410   62.4090 O.2    34  ASP34      -0.2864
     29  CB        16.0080   28.1980   60.3670 C.3    34  ASP34       0.1436
     30  CG        15.4830   27.7520   59.0480 C.2    34  ASP34       0.3671
     31  OD1       14.2180   27.6670   58.8290 O.co2  34  ASP34      -0.2456
     32  OD2       16.3330   27.4420   58.1680 O.co2  34  ASP34      -0.2456
     33  N         30.9060   32.9850   65.0070 N.3   121  THR121     -0.1218
     34  CA        30.9260   32.5510   63.6270 C.3   121  THR121      0.1862
     35  C         30.0270   33.4180   62.7910 C.2   121  THR121      0.2287
     36  O         29.0270   33.8770   63.2640 O.2   121  THR121     -0.2866
     37  CB        30.3720   31.0700   63.5430 C.3   121  THR121      0.1770
     38  OG1       28.9450   31.0320   63.8250 O.3   121  THR121     -0.2211
     39  CG2       31.0060   30.2110   64.6690 C.3   121  THR121      0.0375
     40  N         28.3390   32.7980   58.9670 N.3   123  LEU123     -0.1245
     41  CA        28.2280   31.8450   57.9370 C.3   123  LEU123      0.1561
     42  C         27.6590   32.5460   56.6780 C.2   123  LEU123      0.2260
     43  O         26.6350   33.1890   56.7480 O.2   123  LEU123     -0.2867
     44  CB        27.2710   30.6900   58.3990 C.3   123  LEU123      0.0270
     45  CG        26.9210   29.6760   57.2580 C.3   123  LEU123      0.0019
     46  CD1       28.0770   28.9740   56.6580 C.3   123  LEU123      0.0001
     47  CD2       25.8890   28.6280   57.8200 C.3   123  LEU123      0.0001
     48  N         23.9530   34.3920   56.6460 N.3   130  LEU130     -0.1231
     49  CA        22.9980   33.7110   57.5230 C.3   130  LEU130      0.1693
     50  C         23.0380   34.1140   58.9870 C.2   130  LEU130      0.2593
     51  O         22.3580   33.5240   59.8150 O.2   130  LEU130     -0.2718
     52  CB        23.1800   32.1850   57.4840 C.3   130  LEU130      0.0284
     53  CG        22.7090   31.5450   56.1920 C.3   130  LEU130      0.0019
     54  CD1       21.3420   32.0710   55.8930 C.3   130  LEU130      0.0001
     55  CD2       23.6310   31.8450   55.0720 C.3   130  LEU130      0.0001
     56  N         23.8240   35.1360   59.2960 N.am  131  GLY131     -0.1942
     57  CA        23.7880   35.7600   60.6020 C.3   131  GLY131      0.2014
     58  C         24.8050   35.1580   61.6310 C.2   131  GLY131      0.2639
     59  O         25.5530   34.1510   61.4000 O.2   131  GLY131     -0.2714
     60  N         24.8350   35.8140   62.7610 N.am  132  ASP132     -0.1957
     61  CA        25.7970   35.5070   63.7900 C.3   132  ASP132      0.1840
     62  C         25.3780   34.2880   64.5450 C.2   132  ASP132      0.2621
     63  O         24.1740   34.1270   64.8890 O.2   132  ASP132     -0.2715
     64  CB        25.9560   36.6910   64.7620 C.3   132  ASP132      0.1450
     65  CG        26.2980   38.0240   64.0230 C.2   132  ASP132      0.3671
     66  OD1       27.4560   38.2690   63.6700 O.co2 132  ASP132     -0.2456
     67  OD2       25.3410   38.7370   63.6420 O.co2 132  ASP132     -0.2456
     68  N         26.3890   33.4760   64.9070 N.am  133  LEU133     -0.1977
     69  CA        26.1110   32.3920   65.8190 C.3   133  LEU133      0.1596
     70  C         27.2580   32.2850   66.7910 C.2   133  LEU133      0.2287
     71  O         28.3530   31.9940   66.3910 O.2   133  LEU133     -0.2864
     72  CB        25.8050   31.1300   65.0810 C.3   133  LEU133      0.0297
     73  CG        25.3800   29.9590   65.9330 C.3   133  LEU133      0.0022
     74  CD1       24.3810   29.0620   65.1570 C.3   133  LEU133      0.0001
     75  CD2       26.5990   29.1570   66.4250 C.3   133  LEU133      0.0001
@<TRIPOS>BOND
     1    55    53    1
     2    54    53    1
     3    53    52    1
     4    48    49    1
     5    46    45    1
     6    42    43    2
     7    42    41    1
     8    45    47    1
     9    45    44    1
    10    52    49    1
    11    49    50    1
    12    41    44    1
    13    41    40    1
    14    32    30   ar
    15    17    15   ar
    16    31    30   ar
    17    50    56   am
    18    50    51    2
    19    30    29    1
    20    56    57    1
    21    15    16   ar
    22    15    14    1
    23    29    26    1
    24    14    13    1
    25    57    58    1
    26    26    27    1
    27    26    25    1
    28    27    28    2
    29    59    58    2
    30    58    60   am
    31    13    10    1
    32    25    20   am
    33    12    11    2
    34    21    20    2
    35    20    19    1
    36    60    61    1
    37    35    36    2
    38    35    34    1
    39    11    10    1
    40    11    18   am
    41    10     9    1
    42    37    34    1
    43    37    38    1
    44    37    39    1
    45    34    33    1
    46    19    18    1
    47    19    22    1
    48    67    65   ar
    49    66    65   ar
    50    18    24    1
    51    61    62    1
    52    61    64    1
    53    65    64    1
    54     8     6   ar
    55     7     6   ar
    56    62    63    2
    57    62    68   am
    58     6     5    1
    59    68    69    1
    60    22    23    1
    61    24    23    1
    62    72    69    1
    63    72    73    1
    64    74    73    1
    65    69    70    1
    66    73    75    1
    67     5     2    1
    68    71    70    2
    69     3     2    1
    70     3     4    2
    71     2     1    1
