@<TRIPOS>MOLECULE
tmp/1u19B06.pdb
 111 103 0 0 0
SMALL
GASTEIGER

@<TRIPOS>ATOM
      1  N         39.4090    8.2990   -9.0430 N.3    39  MET39      -0.1245
      2  CA        40.4860    7.9460   -8.1490 C.3    39  MET39       0.1570
      3  C         41.7650    8.6830   -8.5870 C.2    39  MET39       0.2261
      4  O         42.3880    9.3710   -7.7660 O.2    39  MET39      -0.2867
      5  CB        40.6900    6.4440   -8.2260 C.3    39  MET39       0.0387
      6  CG        41.0140    5.8140   -6.9250 C.3    39  MET39       0.0595
      7  SD        39.7510    6.2620   -5.7510 S.3    39  MET39      -0.1393
      8  CE        40.5740    7.6450   -4.8380 C.3    39  MET39       0.0692
      9  N         41.5870   12.2940   -7.9080 N.3    42  ALA42      -0.1231
     10  CA        41.7640   12.6510   -6.4960 C.3    42  ALA42       0.1694
     11  C         43.2380   12.7440   -6.1870 C.2    42  ALA42       0.2592
     12  O         43.6730   13.6750   -5.5260 O.2    42  ALA42      -0.2718
     13  CB        41.1250   11.6050   -5.6010 C.3    42  ALA42       0.0304
     14  N         43.9940   11.7660   -6.6720 N.am   43  TYR43      -0.1976
     15  CA        45.4320   11.6770   -6.4730 C.3    43  TYR43       0.1639
     16  C         46.1570   12.9170   -6.9890 C.2    43  TYR43       0.2290
     17  O         47.0140   13.4620   -6.2910 O.2    43  TYR43      -0.2864
     18  CB        45.9210   10.4450   -7.2050 C.3    43  TYR43       0.0560
     19  CG        47.4060   10.2940   -7.2880 C.ar   43  TYR43      -0.0198
     20  CD1       48.1550    9.9810   -6.1640 C.ar   43  TYR43      -0.0009
     21  CD2       48.0560   10.3790   -8.5130 C.ar   43  TYR43      -0.0009
     22  CE1       49.5160    9.7400   -6.2610 C.ar   43  TYR43       0.0417
     23  CE2       49.4150   10.1420   -8.6260 C.ar   43  TYR43       0.0417
     24  CZ        50.1370    9.8160   -7.5000 C.ar   43  TYR43       0.1957
     25  OH        51.4690    9.5160   -7.6140 O.3    43  TYR43      -0.2866
     26  N         45.4830   16.0650   -4.9420 N.3    46  LEU46      -0.1231
     27  CA        46.3330   16.0570   -3.7560 C.3    46  LEU46       0.1693
     28  C         47.7320   16.4880   -4.1510 C.2    46  LEU46       0.2591
     29  O         48.3410   17.3210   -3.4600 O.2    46  LEU46      -0.2718
     30  CB        46.3900   14.6590   -3.1330 C.3    46  LEU46       0.0284
     31  CG        45.1160   14.2020   -2.4330 C.3    46  LEU46       0.0019
     32  CD1       45.3460   12.8470   -1.8130 C.3    46  LEU46       0.0001
     33  CD2       44.7200   15.2010   -1.3750 C.3    46  LEU46       0.0001
     34  N         48.2390   15.9370   -5.2550 N.am   47  LEU47      -0.1980
     35  CA        49.5760   16.2770   -5.7240 C.3    47  LEU47       0.1596
     36  C         49.6960   17.7740   -5.9830 C.2    47  LEU47       0.2287
     37  O         50.7260   18.3670   -5.6570 O.2    47  LEU47      -0.2864
     38  CB        49.9180   15.4810   -6.9850 C.3    47  LEU47       0.0297
     39  CG        50.4260   14.0600   -6.7320 C.3    47  LEU47       0.0022
     40  CD1       50.8540   13.4180   -8.0310 C.3    47  LEU47       0.0001
     41  CD2       51.6100   14.1010   -5.8010 C.3    47  LEU47       0.0001
     42  N         49.6320   19.8500   -2.6090 N.3    50  LEU50      -0.1245
     43  CA        50.7740   19.6780   -1.7290 C.3    50  LEU50       0.1561
     44  C         51.9950   20.1990   -2.4370 C.2    50  LEU50       0.2260
     45  O         52.7060   21.0470   -1.9080 O.2    50  LEU50      -0.2867
     46  CB        50.9820   18.2100   -1.3840 C.3    50  LEU50       0.0270
     47  CG        51.6150   17.9310   -0.0080 C.3    50  LEU50       0.0019
     48  CD1       51.9830   16.4680    0.0390 C.3    50  LEU50       0.0001
     49  CD2       52.8590   18.7960    0.2530 C.3    50  LEU50       0.0001
     50  N         70.3170    9.9800   -0.7310 N.3   256  ILE256     -0.1245
     51  CA        68.9030    9.7180   -0.5510 C.3   256  ILE256      0.1561
     52  C         68.1120   10.2870   -1.7080 C.2   256  ILE256      0.2260
     53  O         67.1320    9.6820   -2.1250 O.2   256  ILE256     -0.2867
     54  CB        68.4270   10.3300    0.7570 C.3   256  ILE256      0.0252
     55  CG1       68.8460    9.4140    1.8900 C.3   256  ILE256      0.0019
     56  CG2       66.9420   10.5850    0.7290 C.3   256  ILE256      0.0019
     57  CD1       68.5060    7.9880    1.6260 C.3   256  ILE256      0.0001
     58  N         65.5220    8.0570   -3.9590 N.3   260  ALA260     -0.1245
     59  CA        64.1590    8.5050   -4.1930 C.3   260  ALA260      0.1562
     60  C         63.9060    8.5990   -5.6720 C.2   260  ALA260      0.2260
     61  O         62.8720    8.1660   -6.1510 O.2   260  ALA260     -0.2867
     62  CB        63.9370    9.8560   -3.5310 C.3   260  ALA260      0.0290
     63  N         54.9890   11.8010   -8.2730 N.3   297  THR297     -0.1218
     64  CA        55.2960   12.2450   -6.9130 C.3   297  THR297      0.1862
     65  C         56.6850   12.9060   -6.9200 C.2   297  THR297      0.2287
     66  O         57.1510   13.4270   -5.8950 O.2   297  THR297     -0.2866
     67  CB        55.2870   11.0780   -5.8650 C.3   297  THR297      0.1770
     68  OG1       56.1920   10.0390   -6.2670 O.3   297  THR297     -0.2211
     69  CG2       53.9020   10.5210   -5.7100 C.3   297  THR297      0.0375
     70  N         57.2440   16.4520   -5.6520 N.3   300  VAL300     -0.1231
     71  CA        57.1550   16.8570   -4.2450 C.3   300  VAL300      0.1692
     72  C         58.1190   16.1640   -3.2820 C.2   300  VAL300      0.2592
     73  O         58.4270   16.7450   -2.2680 O.2   300  VAL300     -0.2718
     74  CB        55.7000   16.6720   -3.6700 C.3   300  VAL300      0.0266
     75  CG1       54.6560   17.3010   -4.5930 C.3   300  VAL300      0.0020
     76  CG2       55.3900   15.2040   -3.4820 C.3   300  VAL300      0.0020
     77  N         58.6200   14.9750   -3.5640 N.am  301  TYR301     -0.1976
     78  CA        59.4580   14.3120   -2.5610 C.3   301  TYR301      0.1639
     79  C         60.7660   15.0090   -2.2880 C.2   301  TYR301      0.2290
     80  O         61.3140   14.8360   -1.2070 O.2   301  TYR301     -0.2864
     81  CB        59.7370   12.8610   -2.9580 C.3   301  TYR301      0.0560
     82  CG        60.7180   12.7070   -4.0980 C.ar  301  TYR301     -0.0198
     83  CD1       62.0910   12.8410   -3.8860 C.ar  301  TYR301     -0.0009
     84  CD2       60.2770   12.4400   -5.3990 C.ar  301  TYR301     -0.0009
     85  CE1       63.0000   12.7150   -4.9450 C.ar  301  TYR301      0.0417
     86  CE2       61.1780   12.3120   -6.4540 C.ar  301  TYR301      0.0417
     87  CZ        62.5320   12.4530   -6.2150 C.ar  301  TYR301      0.1957
     88  OH        63.4160   12.3410   -7.2500 O.3   301  TYR301     -0.2866
     89  N         60.8260   17.4120    0.5850 N.3   304  VAL304     -0.1231
     90  CA        60.6870   16.7120    1.8530 C.3   304  VAL304      0.1692
     91  C         62.0270   16.1700    2.3530 C.2   304  VAL304      0.2591
     92  O         62.3190   16.2560    3.5520 O.2   304  VAL304     -0.2718
     93  CB        59.6910   15.5620    1.7340 C.3   304  VAL304      0.0266
     94  CG1       59.4210   14.9940    3.1190 C.3   304  VAL304      0.0020
     95  CG2       58.4040   16.0550    1.0670 C.3   304  VAL304      0.0020
     96  N         62.8280   15.6030    1.4540 N.am  305  ILE305     -0.1980
     97  CA        64.1270   15.0720    1.8500 C.3   305  ILE305      0.1595
     98  C         64.8690   16.2040    2.5080 C.2   305  ILE305      0.2287
     99  O         65.3460   16.0820    3.6230 O.2   305  ILE305     -0.2864
    100  CB        64.9680   14.5870    0.6240 C.3   305  ILE305      0.0276
    101  CG1       64.1740   13.5940   -0.2180 C.3   305  ILE305      0.0022
    102  CG2       66.2460   13.9010    1.1090 C.3   305  ILE305      0.0022
    103  CD1       64.9760   12.9900   -1.3320 C.3   305  ILE305      0.0001
    104  N         63.8310   17.3080    5.9780 N.3   308  MET308     -0.1245
    105  CA        64.1710   16.2530    6.9010 C.3   308  MET308      0.1570
    106  C         65.6720   16.0530    6.9930 C.2   308  MET308      0.2261
    107  O         66.1650   15.7280    8.0720 O.2   308  MET308     -0.2867
    108  CB        63.5070   14.9660    6.4380 C.3   308  MET308      0.0387
    109  CG        62.0020   15.0350    6.3950 C.3   308  MET308      0.0595
    110  SD        61.2890   13.9370    7.6300 S.3   308  MET308     -0.1393
    111  CE        60.8060   12.4650    6.6290 C.3   308  MET308      0.0692
@<TRIPOS>BOND
     1     1     2    1
     2    23    21   ar
     3    23    24   ar
     4     3     2    1
     5     3     4    2
     6    21    19   ar
     7    63    64    1
     8     5     2    1
     9     5     6    1
    10    40    39    1
    11     9    10    1
    12    25    24    1
    13    24    22   ar
    14    19    18    1
    15    19    20   ar
    16    88    87    1
    17    18    15    1
    18    16    15    1
    19    16    17    2
    20    38    39    1
    21    38    35    1
    22     6     7    1
    23    65    64    1
    24    65    66    2
    25    64    67    1
    26    39    41    1
    27    14    15    1
    28    14    11   am
    29    10    11    1
    30    10    13    1
    31    86    87   ar
    32    86    84   ar
    33    68    67    1
    34    22    20   ar
    35    87    85   ar
    36    11    12    2
    37    61    60    2
    38    36    35    1
    39    36    37    2
    40    67    69    1
    41     7     8    1
    42    35    34    1
    43    60    59    1
    44    70    71    1
    45    84    82   ar
    46    34    28   am
    47    85    83   ar
    48    26    27    1
    49    75    74    1
    50    71    74    1
    51    71    72    1
    52    59    58    1
    53    59    62    1
    54    28    27    1
    55    28    29    2
    56    82    83   ar
    57    82    81    1
    58    27    30    1
    59    74    76    1
    60    77    72   am
    61    77    78    1
    62    72    73    2
    63    30    31    1
    64    81    78    1
    65    42    43    1
    66    78    79    1
    67    44    45    2
    68    44    43    1
    69    31    32    1
    70    31    33    1
    71    79    80    2
    72    53    52    2
    73    43    46    1
    74    52    51    1
    75    46    47    1
    76   103   101    1
    77    50    51    1
    78    51    54    1
    79   101   100    1
    80    47    48    1
    81    47    49    1
    82    89    90    1
    83   100   102    1
    84   100    97    1
    85    56    54    1
    86    54    55    1
    87    95    93    1
    88    96    97    1
    89    96    91   am
    90    57    55    1
    91    93    90    1
    92    93    94    1
    93    97    98    1
    94    90    91    1
    95    91    92    2
    96    98    99    2
    97   104   105    1
    98   109   108    1
    99   109   110    1
   100   108   105    1
   101   111   110    1
   102   105   106    1
   103   106   107    2
