@<TRIPOS>MOLECULE
tmp/1u19A07.pdb
 106 99 0 0 0
SMALL
GASTEIGER

@<TRIPOS>ATOM
      1  N         54.8820   13.7320    8.8210 N.3    43  TYR43      -0.1241
      2  CA        53.5110   13.4410    8.4350 C.3    43  TYR43       0.1605
      3  C         52.5360   14.5470    8.8750 C.2    43  TYR43       0.2264
      4  O         51.7990   15.1030    8.0400 O.2    43  TYR43      -0.2867
      5  CB        53.1170   12.1210    9.0670 C.3    43  TYR43       0.0534
      6  CG        51.6680   11.7560    8.9350 C.ar   43  TYR43      -0.0201
      7  CD1       51.1300   11.3910    7.7120 C.ar   43  TYR43      -0.0009
      8  CD2       50.8570   11.6830   10.0580 C.ar   43  TYR43      -0.0009
      9  CE1       49.8200   10.9410    7.6160 C.ar   43  TYR43       0.0417
     10  CE2       49.5510   11.2430    9.9820 C.ar   43  TYR43       0.0417
     11  CZ        49.0390   10.8620    8.7620 C.ar   43  TYR43       0.1957
     12  OH        47.7660   10.3280    8.7070 O.3    43  TYR43      -0.2866
     13  N         52.8720   17.5240    6.6790 N.3    46  LEU46      -0.1231
     14  CA        52.2770   17.4520    5.3330 C.3    46  LEU46       0.1693
     15  C         50.7860   17.5470    5.3950 C.2    46  LEU46       0.2591
     16  O         50.1980   18.1420    4.4950 O.2    46  LEU46      -0.2718
     17  CB        52.6520   16.1570    4.6280 C.3    46  LEU46       0.0284
     18  CG        54.1420   15.9480    4.3720 C.3    46  LEU46       0.0019
     19  CD1       54.3720   14.5840    3.7060 C.3    46  LEU46       0.0001
     20  CD2       54.6590   17.0910    3.5130 C.3    46  LEU46       0.0001
     21  N         50.1720   16.9530    6.4250 N.am   47  LEU47      -0.1980
     22  CA        48.7130   17.0130    6.6120 C.3    47  LEU47       0.1596
     23  C         48.2530   18.4660    6.8610 C.2    47  LEU47       0.2287
     24  O         47.1840   18.8660    6.4060 O.2    47  LEU47      -0.2864
     25  CB        48.2730   16.1620    7.8150 C.3    47  LEU47       0.0297
     26  CG        47.7510   14.7360    7.6770 C.3    47  LEU47       0.0022
     27  CD1       47.1380   14.3060    9.0180 C.3    47  LEU47       0.0001
     28  CD2       46.7020   14.6640    6.5910 C.3    47  LEU47       0.0001
     29  N         48.3150   20.3510    3.5950 N.3    50  LEU50      -0.1245
     30  CA        47.2460   19.9520    2.6730 C.3    50  LEU50       0.1561
     31  C         45.9040   20.3790    3.2230 C.2    50  LEU50       0.2260
     32  O         45.0880   20.9330    2.5070 O.2    50  LEU50      -0.2867
     33  CB        47.2200   18.4360    2.5150 C.3    50  LEU50       0.0270
     34  CG        47.9880   17.8040    1.3700 C.3    50  LEU50       0.0019
     35  CD1       48.0270   16.2990    1.5540 C.3    50  LEU50       0.0001
     36  CD2       47.3110   18.1960    0.0640 C.3    50  LEU50       0.0001
     37  N         29.6610    7.5650   -0.8880 N.3   256  ILE256     -0.1245
     38  CA        31.1150    7.4440   -0.8800 C.3   256  ILE256      0.1561
     39  C         31.6520    8.0470    0.3980 C.2   256  ILE256      0.2260
     40  O         32.5590    7.4950    0.9960 O.2   256  ILE256     -0.2867
     41  CB        31.7400    8.1790   -2.0660 C.3   256  ILE256      0.0252
     42  CG1       31.4710    7.3880   -3.3350 C.3   256  ILE256      0.0019
     43  CG2       33.2460    8.3580   -1.8440 C.3   256  ILE256      0.0019
     44  CD1       32.1590    6.0700   -3.3370 C.3   256  ILE256      0.0001
     45  N         31.6300    5.5460    3.1190 N.3   259  ILE259     -0.1231
     46  CA        32.6720    4.5290    3.0160 C.3   259  ILE259      0.1692
     47  C         33.9890    5.1150    3.4860 C.2   259  ILE259      0.2591
     48  O         34.7500    4.4420    4.1810 O.2   259  ILE259     -0.2718
     49  CB        32.8350    4.0560    1.5410 C.3   259  ILE259      0.0266
     50  CG1       31.5720    3.3310    1.0860 C.3   259  ILE259      0.0019
     51  CG2       34.0100    3.1230    1.3990 C.3   259  ILE259      0.0020
     52  CD1       31.1930    2.2040    2.0030 C.3   259  ILE259      0.0001
     53  N         34.2550    6.3650    3.1080 N.am  260  ALA260     -0.1980
     54  CA        35.4970    7.0360    3.4760 C.3   260  ALA260      0.1597
     55  C         35.5730    7.1960    4.9720 C.2   260  ALA260      0.2287
     56  O         36.6500    7.0690    5.5390 O.2   260  ALA260     -0.2864
     57  CB        35.6000    8.4070    2.7810 C.3   260  ALA260      0.0319
     58  N         36.3750    3.6330    6.6560 N.3   263  ILE263     -0.1245
     59  CA        37.7600    3.2690    6.3750 C.3   263  ILE263      0.1561
     60  C         38.6590    4.0090    7.3610 C.2   263  ILE263      0.2260
     61  O         39.5730    3.4480    7.9630 O.2   263  ILE263     -0.2867
     62  CB        38.1360    3.7010    4.9560 C.3   263  ILE263      0.0252
     63  CG1       37.3610    2.8770    3.9520 C.3   263  ILE263      0.0019
     64  CG2       39.6110    3.5550    4.7340 C.3   263  ILE263      0.0019
     65  CD1       37.6890    3.2360    2.5440 C.3   263  ILE263      0.0001
     66  N         43.4300   11.7240    8.6930 N.3   297  THR297     -0.1218
     67  CA        43.2580   12.1470    7.3090 C.3   297  THR297      0.1862
     68  C         41.8060   12.5620    7.1250 C.2   297  THR297      0.2287
     69  O         41.4170   13.0800    6.0700 O.2   297  THR297     -0.2866
     70  CB        43.6360   11.0250    6.3130 C.3   297  THR297      0.1770
     71  OG1       42.9530    9.8100    6.6570 O.3   297  THR297     -0.2211
     72  CG2       45.1270   10.8050    6.3210 C.3   297  THR297      0.0375
     73  N         40.7960   15.8960    5.8230 N.3   300  VAL300     -0.1231
     74  CA        41.0290   16.2780    4.4280 C.3   300  VAL300      0.1692
     75  C         40.2300   15.5020    3.3800 C.2   300  VAL300      0.2592
     76  O         39.8560   16.0880    2.3710 O.2   300  VAL300     -0.2718
     77  CB        42.5150   16.1380    4.0730 C.3   300  VAL300      0.0266
     78  CG1       43.3560   16.9030    5.0480 C.3   300  VAL300      0.0020
     79  CG2       42.9160   14.6870    4.1120 C.3   300  VAL300      0.0020
     80  N         39.9460   14.2240    3.5870 N.am  301  TYR301     -0.1976
     81  CA        39.2750   13.4980    2.5210 C.3   301  TYR301      0.1639
     82  C         37.9180   14.0340    2.1660 C.2   301  TYR301      0.2290
     83  O         37.5620   13.9230    1.0140 O.2   301  TYR301     -0.2864
     84  CB        39.1960   11.9990    2.8230 C.3   301  TYR301      0.0560
     85  CG        38.1420   11.6060    3.8130 C.ar  301  TYR301     -0.0198
     86  CD1       36.7940   11.5730    3.4590 C.ar  301  TYR301     -0.0009
     87  CD2       38.4880   11.3110    5.1210 C.ar  301  TYR301     -0.0009
     88  CE1       35.8130   11.2650    4.4020 C.ar  301  TYR301      0.0417
     89  CE2       37.5290   10.9980    6.0660 C.ar  301  TYR301      0.0417
     90  CZ        36.1920   10.9820    5.7130 C.ar  301  TYR301      0.1957
     91  OH        35.2600   10.7440    6.7020 O.3   301  TYR301     -0.2866
     92  N         37.9900   16.5090   -0.7570 N.3   304  VAL304     -0.1231
     93  CA        38.4750   15.8730   -1.9700 C.3   304  VAL304      0.1692
     94  C         37.3400   15.1410   -2.6540 C.2   304  VAL304      0.2591
     95  O         37.1480   15.2750   -3.8560 O.2   304  VAL304     -0.2718
     96  CB        39.6410   14.8930   -1.6590 C.3   304  VAL304      0.0266
     97  CG1       40.1730   14.2730   -2.9370 C.3   304  VAL304      0.0020
     98  CG2       40.7550   15.6400   -0.9660 C.3   304  VAL304      0.0020
     99  N         36.5800   14.3790   -1.8840 N.am  305  ILE305     -0.1980
    100  CA        35.4720   13.6160   -2.4320 C.3   305  ILE305      0.1595
    101  C         34.4730   14.5680   -3.0450 C.2   305  ILE305      0.2287
    102  O         33.8980   14.3000   -4.0970 O.2   305  ILE305     -0.2864
    103  CB        34.7940   12.7810   -1.3230 C.3   305  ILE305      0.0276
    104  CG1       35.7990   11.7810   -0.7420 C.3   305  ILE305      0.0022
    105  CG2       33.6100   12.0400   -1.8840 C.3   305  ILE305      0.0022
    106  CD1       35.2220   10.8990    0.3110 C.3   305  ILE305      0.0001
@<TRIPOS>BOND
     1   102   101    2
     2    95    94    2
     3    44    42    1
     4    42    41    1
     5   101   100    1
     6    97    96    1
     7    94    93    1
     8    94    99   am
     9   100    99    1
    10   100   103    1
    11    41    43    1
    12    41    38    1
    13    93    96    1
    14    93    92    1
    15   105   103    1
    16    96    98    1
    17   103   104    1
    18    37    38    1
    19    38    39    1
    20   104   106    1
    21    36    34    1
    22    39    40    2
    23    83    82    2
    24    50    49    1
    25    50    52    1
    26    34    35    1
    27    34    33    1
    28    51    49    1
    29    49    46    1
    30    82    81    1
    31    76    75    2
    32    32    31    2
    33    33    30    1
    34    81    84    1
    35    81    80    1
    36    65    63    1
    37    30    31    1
    38    30    29    1
    39    57    54    1
    40    84    85    1
    41    46    45    1
    42    46    47    1
    43    53    54    1
    44    53    47   am
    45    75    80   am
    46    75    74    1
    47    86    85   ar
    48    86    88   ar
    49    54    55    1
    50    47    48    2
    51    20    18    1
    52    19    18    1
    53    85    87   ar
    54    63    62    1
    55    77    79    1
    56    77    74    1
    57    77    78    1
    58    18    17    1
    59    88    90   ar
    60    74    73    1
    61    16    15    2
    62    17    14    1
    63    64    62    1
    64    62    59    1
    65    55    56    2
    66    87    89   ar
    67    14    15    1
    68    14    13    1
    69    15    21   am
    70    90    89   ar
    71    90    91    1
    72    69    68    2
    73    70    72    1
    74    70    71    1
    75    70    67    1
    76    59    58    1
    77    59    60    1
    78    24    23    2
    79    21    22    1
    80    28    26    1
    81    22    23    1
    82    22    25    1
    83    68    67    1
    84    67    66    1
    85    60    61    2
    86     9     7   ar
    87     9    11   ar
    88    26    25    1
    89    26    27    1
    90     7     6   ar
    91     4     3    2
    92     2     1    1
    93     2     3    1
    94     2     5    1
    95    12    11    1
    96    11    10   ar
    97     6     5    1
    98     6     8   ar
    99    10     8   ar
