@<TRIPOS>MOLECULE
tmp/1u1cD00.pdb
 132 125 0 0 0
SMALL
GASTEIGER

@<TRIPOS>ATOM
      1  N         -0.7520  138.0980   93.5980 N.3    66  ILE66      -0.1245
      2  CA         0.2140  137.8360   92.5340 C.3    66  ILE66       0.1561
      3  C         -0.3630  136.8450   91.5220 C.2    66  ILE66       0.2260
      4  O         -0.8590  135.7770   91.8960 O.2    66  ILE66      -0.2867
      5  CB         1.5540  137.3190   93.1240 C.3    66  ILE66       0.0252
      6  CG1        2.3570  138.4760   93.7250 C.3    66  ILE66       0.0019
      7  CG2        2.3790  136.5880   92.0650 C.3    66  ILE66       0.0019
      8  CD1        3.3960  138.0420   94.7430 C.3    66  ILE66       0.0001
      9  N         -4.4190  149.4230   87.4600 N.3    88  ARG88      -0.1245
     10  CA        -3.4350  148.6050   88.1600 C.3    88  ARG88       0.1563
     11  C         -2.1780  149.3840   88.5350 C.2    88  ARG88       0.2260
     12  O         -1.6280  150.1360   87.7260 O.2    88  ARG88      -0.2867
     13  CB        -3.0620  147.3570   87.3510 C.3    88  ARG88       0.0307
     14  CG        -2.3990  146.2760   88.1960 C.3    88  ARG88       0.0489
     15  CD        -1.9300  145.0370   87.4400 C.3    88  ARG88       0.2205
     16  NE        -0.4700  144.8980   87.4380 N.pl3  88  ARG88      -0.0865
     17  CZ         0.2830  144.6410   88.5100 C.cat  88  ARG88       0.5346
     18  NH1       -0.2670  144.4830   89.7100 N.pl3  88  ARG88       0.1354
     19  NH2        1.6000  144.5400   88.3810 N.pl3  88  ARG88       0.1354
     20  N          4.6500  146.6170   91.0880 N.3    91  THR91      -0.1203
     21  CA         6.1040  146.7180   91.1360 C.3    91  THR91       0.1994
     22  C          6.6280  146.0110   89.8960 C.2    91  THR91       0.2619
     23  O          5.9330  145.1670   89.3240 O.2    91  THR91      -0.2717
     24  CB         6.6680  146.0490   92.4050 C.3    91  THR91       0.1784
     25  OG1        6.1740  144.7070   92.5040 O.3    91  THR91      -0.2211
     26  CG2        6.1320  146.7250   93.6660 C.3    91  THR91       0.0376
     27  N          7.8420  146.3510   89.4730 N.am   92  THR92      -0.1938
     28  CA         8.4020  145.7470   88.2680 C.3    92  THR92       0.2028
     29  C          9.9290  145.6510   88.2460 C.2    92  THR92       0.2642
     30  O         10.6240  146.3970   88.9390 O.2    92  THR92      -0.2714
     31  CB         7.8680  146.4570   86.9930 C.3    92  THR92       0.1808
     32  OG1        8.3140  145.7450   85.8360 O.3    92  THR92      -0.2208
     33  CG2        8.4830  147.8450   86.8220 C.3    92  THR92       0.0379
     34  N         10.4270  144.7130   87.4440 N.am   93  GLY93      -0.1954
     35  CA        11.8460  144.5810   87.1760 C.3    93  GLY93       0.1869
     36  C         12.1250  144.9430   85.7310 C.2    93  GLY93       0.2309
     37  O         11.6960  144.2360   84.8150 O.2    93  GLY93      -0.2863
     38  N          7.6250  134.0110   88.5850 N.3   159  PHE159     -0.1241
     39  CA         8.6260  135.0050   88.9650 C.3   159  PHE159      0.1605
     40  C         10.0310  134.6070   88.5150 C.2   159  PHE159      0.2264
     41  O         10.8430  135.4690   88.1700 O.2   159  PHE159     -0.2867
     42  CB         8.6050  135.2250   90.4830 C.3   159  PHE159      0.0534
     43  CG         9.4630  136.3720   90.9510 C.ar  159  PHE159     -0.0203
     44  CD1        8.9670  137.6740   90.9530 C.ar  159  PHE159     -0.0042
     45  CD2       10.7600  136.1480   91.4050 C.ar  159  PHE159     -0.0042
     46  CE1        9.7550  138.7360   91.3910 C.ar  159  PHE159     -0.0003
     47  CE2       11.5560  137.2050   91.8450 C.ar  159  PHE159     -0.0003
     48  CZ        11.0520  138.5010   91.8360 C.ar  159  PHE159     -0.0000
     49  N         10.8840  134.6100   83.8510 N.3   163  GLN163     -0.1245
     50  CA        11.6260  135.8660   83.8070 C.3   163  GLN163      0.1566
     51  C         13.1170  135.5500   83.6660 C.2   163  GLN163      0.2260
     52  O         13.9800  136.4060   83.8820 O.2   163  GLN163     -0.2867
     53  CB        11.3220  136.7130   85.0490 C.3   163  GLN163      0.0367
     54  CG         9.8480  137.1220   85.1430 C.3   163  GLN163      0.0905
     55  CD         9.5330  138.0590   86.2980 C.2   163  GLN163      0.2608
     56  OE1       10.3590  138.8860   86.6860 O.2   163  GLN163     -0.2717
     57  NE2        8.3250  137.9410   86.8370 N.am  163  GLN163     -0.0878
     58  N         15.2330  133.7640   85.4510 N.3   165  ARG165     -0.1245
     59  CA        16.0850  133.7950   86.6330 C.3   165  ARG165      0.1563
     60  C         16.7170  132.4200   86.8290 C.2   165  ARG165      0.2260
     61  O         16.0150  131.4060   86.8660 O.2   165  ARG165     -0.2867
     62  CB        15.2770  134.1920   87.8690 C.3   165  ARG165      0.0307
     63  CG        15.1660  135.6900   88.0850 C.3   165  ARG165      0.0489
     64  CD        14.5700  136.0780   89.4310 C.3   165  ARG165      0.2205
     65  NE        14.5570  137.5260   89.6370 N.pl3 165  ARG165     -0.0865
     66  CZ        13.5980  138.3420   89.2090 C.cat 165  ARG165      0.5346
     67  NH1       12.5510  137.8670   88.5430 N.pl3 165  ARG165      0.1354
     68  NH2       13.6850  139.6420   89.4500 N.pl3 165  ARG165      0.1354
     69  N          9.3270  143.2470   83.3590 N.3   192  TYR192     -0.1227
     70  CA         8.5900  142.0550   83.7630 C.3   192  TYR192      0.1736
     71  C          7.6460  142.3790   84.9200 C.2   192  TYR192      0.2595
     72  O          8.0140  143.1070   85.8450 O.2   192  TYR192     -0.2718
     73  CB         9.5560  140.9710   84.2460 C.3   192  TYR192      0.0548
     74  CG        10.2190  140.1190   83.1830 C.ar  192  TYR192     -0.0200
     75  CD1       11.6090  140.0450   83.1050 C.ar  192  TYR192     -0.0009
     76  CD2        9.4670  139.3530   82.2890 C.ar  192  TYR192     -0.0009
     77  CE1       12.2380  139.2560   82.1540 C.ar  192  TYR192      0.0417
     78  CE2       10.0900  138.5560   81.3260 C.ar  192  TYR192      0.0417
     79  CZ        11.4780  138.5150   81.2700 C.ar  192  TYR192      0.1957
     80  OH        12.1180  137.7370   80.3360 O.3   192  TYR192     -0.2866
     81  N          6.4320  141.8370   84.8580 N.am  193  GLU193     -0.1965
     82  CA         5.5410  141.7450   86.0210 C.3   193  GLU193      0.1733
     83  C          4.5870  140.5540   85.8590 C.2   193  GLU193      0.2616
     84  O          4.7770  139.7310   84.9580 O.2   193  GLU193     -0.2715
     85  CB         4.8150  143.0700   86.3270 C.3   193  GLU193      0.0429
     86  CG         4.0030  143.6680   85.1910 C.3   193  GLU193      0.1163
     87  CD         2.6390  143.0290   85.0600 C.2   193  GLU193      0.3649
     88  OE1        2.4780  142.1670   84.1750 O.co2 193  GLU193     -0.2457
     89  OE2        1.7340  143.3760   85.8470 O.co2 193  GLU193     -0.2457
     90  N          3.5740  140.4460   86.7180 N.am  194  MET194     -0.1963
     91  CA         2.8170  139.1950   86.8080 C.3   194  MET194      0.1736
     92  C          1.2840  139.2900   86.7550 C.2   194  MET194      0.2616
     93  O          0.6000  138.2810   86.9400 O.2   194  MET194     -0.2715
     94  CB         3.2690  138.4000   88.0420 C.3   194  MET194      0.0427
     95  CG         4.7000  137.8720   87.9360 C.3   194  MET194      0.0599
     96  SD         5.3020  137.0000   89.3830 S.3   194  MET194     -0.1393
     97  CE         4.3970  135.4620   89.2650 C.3   194  MET194      0.0692
     98  N          0.7440  140.4740   86.4750 N.am  195  GLU195     -0.1977
     99  CA        -0.7100  140.6550   86.5070 C.3   195  GLU195      0.1602
    100  C         -1.3370  141.3020   85.2690 C.2   195  GLU195      0.2287
    101  O         -2.5090  141.0550   84.9750 O.2   195  GLU195     -0.2864
    102  CB        -1.1230  141.4350   87.7580 C.3   195  GLU195      0.0415
    103  CG        -1.1880  140.5990   89.0250 C.3   195  GLU195      0.1163
    104  CD         0.0070  140.8230   89.9270 C.2   195  GLU195      0.3649
    105  OE1        0.0400  141.8620   90.6200 O.co2 195  GLU195     -0.2457
    106  OE2        0.9120  139.9630   89.9400 O.co2 195  GLU195     -0.2457
    107  N         11.7930  148.8710   90.7160 N.3   217  ILE217     -0.1231
    108  CA        12.6100  148.6780   91.9160 C.3   217  ILE217      0.1692
    109  C         13.9010  147.9090   91.6240 C.2   217  ILE217      0.2591
    110  O         14.8380  147.9350   92.4220 O.2   217  ILE217     -0.2718
    111  CB        11.8000  148.0140   93.0660 C.3   217  ILE217      0.0266
    112  CG1       10.9900  146.8120   92.5650 C.3   217  ILE217      0.0019
    113  CG2       10.9020  149.0460   93.7510 C.3   217  ILE217      0.0020
    114  CD1       10.6870  145.7840   93.6440 C.3   217  ILE217      0.0001
    115  N         13.9470  147.2430   90.4720 N.am  218  VAL218     -0.1980
    116  CA        15.1230  146.4780   90.0610 C.3   218  VAL218      0.1595
    117  C         15.3400  146.5610   88.5480 C.2   218  VAL218      0.2287
    118  O         14.3830  146.5560   87.7710 O.2   218  VAL218     -0.2864
    119  CB        15.0370  144.9960   90.5530 C.3   218  VAL218      0.0276
    120  CG1       15.4540  143.9940   89.4730 C.3   218  VAL218      0.0022
    121  CG2       15.8730  144.8030   91.8090 C.3   218  VAL218      0.0022
    122  N         17.4120  144.4000   85.6980 N.3   220  ARG220     -0.1245
    123  CA        18.0520  143.0980   85.5110 C.3   220  ARG220      0.1563
    124  C         19.4280  143.1530   84.8390 C.2   220  ARG220      0.2260
    125  O         20.2500  142.2570   85.0380 O.2   220  ARG220     -0.2867
    126  CB        17.1220  142.1550   84.7380 C.3   220  ARG220      0.0307
    127  CG        15.8100  141.8350   85.4580 C.3   220  ARG220      0.0489
    128  CD        15.9310  140.8090   86.5860 C.3   220  ARG220      0.2205
    129  NE        16.4980  139.5410   86.1270 N.pl3 220  ARG220     -0.0865
    130  CZ        15.8070  138.5700   85.5370 C.cat 220  ARG220      0.5346
    131  NH1       14.5030  138.7010   85.3240 N.pl3 220  ARG220      0.1354
    132  NH2       16.4230  137.4580   85.1590 N.pl3 220  ARG220      0.1354
@<TRIPOS>BOND
     1    80    79    1
     2    79    78   ar
     3    79    77   ar
     4    78    76   ar
     5    77    75   ar
     6    76    74   ar
     7    75    74   ar
     8    74    73    1
     9    69    70    1
    10    51    50    1
    11    51    52    2
    12    70    73    1
    13    70    71    1
    14    50    49    1
    15    50    53    1
    16    88    87   ar
    17   126   127    1
    18   126   123    1
    19    37    36    2
    20   124   125    2
    21   124   123    1
    22    81    71   am
    23    81    82    1
    24    71    72    2
    25    84    83    2
    26   101   100    2
    27    53    54    1
    28    87    86    1
    29    87    89   ar
    30    54    55    1
    31   132   130    1
    32    86    85    1
    33   100    99    1
    34   131   130    1
    35    58    59    1
    36   127   128    1
    37   123   122    1
    38   130   129    2
    39    36    35    1
    40    32    31    1
    41    83    82    1
    42    83    90   am
    43    82    85    1
    44   129   128    1
    45    55    56    2
    46    55    57   am
    47    98    99    1
    48    98    92   am
    49    99   102    1
    50    59    60    1
    51    59    62    1
    52    90    91    1
    53    92    91    1
    54    92    93    2
    55    91    94    1
    56    33    31    1
    57    60    61    2
    58    31    28    1
    59    35    34    1
    60    13    10    1
    61    13    14    1
    62    16    15    1
    63    16    17    2
    64    15    14    1
    65    34    29   am
    66     9    10    1
    67    12    11    2
    68   102   103    1
    69   118   117    2
    70    62    63    1
    71    95    94    1
    72    95    96    1
    73    63    64    1
    74    10    11    1
    75    41    40    2
    76    29    28    1
    77    29    30    2
    78    28    27    1
    79    19    17    1
    80    17    18    1
    81    40    39    1
    82    67    66    1
    83   117   116    1
    84    38    39    1
    85    39    42    1
    86   103   104    1
    87    66    68    1
    88    66    65    2
    89    97    96    1
    90    23    22    2
    91    64    65    1
    92   120   119    1
    93    27    22   am
    94    22    21    1
    95   104   106   ar
    96   104   105   ar
    97   116   115    1
    98   116   119    1
    99   115   109   am
   100    42    43    1
   101   119   121    1
   102   107   108    1
   103    43    44   ar
   104    43    45   ar
   105    44    46   ar
   106    20    21    1
   107    21    24    1
   108    46    48   ar
   109    45    47   ar
   110     3     4    2
   111     3     2    1
   112   109   108    1
   113   109   110    2
   114    48    47   ar
   115   108   111    1
   116     7     5    1
   117    24    25    1
   118    24    26    1
   119     2     5    1
   120     2     1    1
   121   112   111    1
   122   112   114    1
   123   111   113    1
   124     5     6    1
   125     6     8    1
