@<TRIPOS>MOLECULE
tmp/1u1dF00.pdb
 156 147 0 0 0
SMALL
GASTEIGER

@<TRIPOS>ATOM
      1  N          3.8670  194.3750  -25.1130 N.3    66  ILE66      -0.1245
      2  CA         4.6140  193.8090  -23.9910 C.3    66  ILE66       0.1561
      3  C          3.7930  193.8880  -22.7080 C.2    66  ILE66       0.2260
      4  O          3.2740  194.9510  -22.3590 O.2    66  ILE66      -0.2867
      5  CB         5.9700  194.5330  -23.7990 C.3    66  ILE66       0.0252
      6  CG1        6.8260  194.4340  -25.0630 C.3    66  ILE66       0.0019
      7  CG2        6.7280  193.9560  -22.6060 C.3    66  ILE66       0.0019
      8  CD1        7.8280  195.5600  -25.2070 C.3    66  ILE66       0.0001
      9  N          0.0430  182.2430  -28.6240 N.3    88  ARG88      -0.1245
     10  CA         1.0870  183.2460  -28.4650 C.3    88  ARG88       0.1563
     11  C          2.4180  182.7570  -29.0180 C.2    88  ARG88       0.2260
     12  O          2.8780  181.6620  -28.6840 O.2    88  ARG88      -0.2867
     13  CB         1.2410  183.6610  -26.9970 C.3    88  ARG88       0.0307
     14  CG         2.0950  184.9080  -26.8140 C.3    88  ARG88       0.0489
     15  CD         2.2650  185.3790  -25.3770 C.3    88  ARG88       0.2205
     16  NE         3.6640  185.3360  -24.9420 N.pl3  88  ARG88      -0.0865
     17  CZ         4.6360  186.1230  -25.4020 C.cat  88  ARG88       0.5346
     18  NH1        4.3870  187.0450  -26.3270 N.pl3  88  ARG88       0.1354
     19  NH2        5.8700  185.9900  -24.9330 N.pl3  88  ARG88       0.1354
     20  N          9.3540  185.9970  -27.9680 N.3    91  THR91      -0.1203
     21  CA        10.7960  185.8580  -27.7900 C.3    91  THR91       0.1994
     22  C         11.0430  185.5430  -26.3260 C.2    91  THR91       0.2619
     23  O         10.1950  185.8350  -25.4770 O.2    91  THR91      -0.2717
     24  CB        11.5370  187.1590  -28.1670 C.3    91  THR91       0.1784
     25  OG1       11.0210  188.2520  -27.3940 O.3    91  THR91      -0.2211
     26  CG2       11.2520  187.5600  -29.6100 C.3    91  THR91       0.0376
     27  N         12.1970  184.9550  -26.0230 N.am   92  THR92      -0.1938
     28  CA        12.5060  184.5830  -24.6450 C.3    92  THR92       0.2028
     29  C         14.0000  184.5050  -24.3250 C.2    92  THR92       0.2642
     30  O         14.8350  184.3140  -25.2120 O.2    92  THR92      -0.2714
     31  CB        11.7880  183.2590  -24.2550 C.3    92  THR92       0.1808
     32  OG1       11.9640  183.0150  -22.8560 O.3    92  THR92      -0.2208
     33  CG2       12.4420  182.0440  -24.9200 C.3    92  THR92       0.0379
     34  N         14.3130  184.6730  -23.0430 N.am   93  GLY93      -0.1954
     35  CA        15.6510  184.4580  -22.5300 C.3    93  GLY93       0.1869
     36  C         15.6580  183.1990  -21.6900 C.2    93  GLY93       0.2309
     37  O         14.9660  183.1250  -20.6740 O.2    93  GLY93      -0.2863
     38  N         11.1290  193.5280  -17.4450 N.3   159  PHE159     -0.1241
     39  CA        12.2260  192.9550  -18.2120 C.3   159  PHE159      0.1605
     40  C         13.4930  192.8870  -17.3620 C.2   159  PHE159      0.2264
     41  O         14.3130  191.9810  -17.5300 O.2   159  PHE159     -0.2867
     42  CB        12.4770  193.7870  -19.4720 C.3   159  PHE159      0.0534
     43  CG        13.4850  193.1860  -20.4140 C.ar  159  PHE159     -0.0203
     44  CD1       13.1000  192.2280  -21.3480 C.ar  159  PHE159     -0.0042
     45  CD2       14.8180  193.5880  -20.3750 C.ar  159  PHE159     -0.0042
     46  CE1       14.0320  191.6720  -22.2250 C.ar  159  PHE159     -0.0003
     47  CE2       15.7550  193.0380  -21.2460 C.ar  159  PHE159     -0.0003
     48  CZ        15.3610  192.0780  -22.1720 C.ar  159  PHE159     -0.0000
     49  N         13.4350  189.8100  -13.7600 N.3   163  GLN163     -0.1245
     50  CA        14.2450  188.7850  -14.4090 C.3   163  GLN163      0.1566
     51  C         15.6730  188.8380  -13.8590 C.2   163  GLN163      0.2260
     52  O         16.6110  188.3010  -14.4560 O.2   163  GLN163     -0.2867
     53  CB        14.2050  188.9620  -15.9310 C.3   163  GLN163      0.0367
     54  CG        12.7890  188.9040  -16.5020 C.3   163  GLN163      0.0905
     55  CD        12.7330  189.0230  -18.0130 C.2   163  GLN163      0.2608
     56  OE1       13.6790  188.6600  -18.7130 O.2   163  GLN163     -0.2717
     57  NE2       11.6140  189.5260  -18.5210 N.am  163  GLN163     -0.0878
     58  N         17.9640  191.2400  -13.6040 N.3   165  ARG165     -0.1245
     59  CA        19.0070  191.9540  -14.3300 C.3   165  ARG165      0.1563
     60  C         19.5540  193.0650  -13.4400 C.2   165  ARG165      0.2260
     61  O         18.7880  193.8470  -12.8690 O.2   165  ARG165     -0.2867
     62  CB        18.4610  192.5360  -15.6360 C.3   165  ARG165      0.0307
     63  CG        18.3760  191.5370  -16.7790 C.3   165  ARG165      0.0489
     64  CD        18.0100  192.1560  -18.1210 C.3   165  ARG165      0.2205
     65  NE        18.2560  191.2430  -19.2370 N.pl3 165  ARG165     -0.0865
     66  CZ        17.3700  190.3730  -19.7140 C.cat 165  ARG165      0.5346
     67  NH1       16.1560  190.2810  -19.1800 N.pl3 165  ARG165      0.1354
     68  NH2       17.6970  189.5890  -20.7330 N.pl3 165  ARG165      0.1354
     69  N         12.4170  183.1400  -19.2570 N.3   192  TYR192     -0.1227
     70  CA        11.6970  184.3540  -18.8950 C.3   192  TYR192      0.1736
     71  C         11.0020  184.9330  -20.1240 C.2   192  TYR192      0.2595
     72  O         11.6150  185.0570  -21.1870 O.2   192  TYR192     -0.2718
     73  CB        12.6740  185.4180  -18.3830 C.3   192  TYR192      0.0548
     74  CG        13.1140  185.3050  -16.9390 C.ar  192  TYR192     -0.0200
     75  CD1       14.4630  185.1690  -16.6210 C.ar  192  TYR192     -0.0009
     76  CD2       12.1950  185.3800  -15.8900 C.ar  192  TYR192     -0.0009
     77  CE1       14.8880  185.0840  -15.3000 C.ar  192  TYR192      0.0417
     78  CE2       12.6120  185.2960  -14.5600 C.ar  192  TYR192      0.0417
     79  CZ        13.9600  185.1470  -14.2760 C.ar  192  TYR192      0.1957
     80  OH        14.3930  185.0620  -12.9730 O.3   192  TYR192     -0.2866
     81  N          9.7270  185.2790  -19.9760 N.am  193  GLU193     -0.1965
     82  CA         9.0480  186.1820  -20.9100 C.3   193  GLU193      0.1733
     83  C          8.0330  187.0400  -20.1440 C.2   193  GLU193      0.2616
     84  O          8.0360  187.0360  -18.9100 O.2   193  GLU193     -0.2715
     85  CB         8.4460  185.4500  -22.1260 C.3   193  GLU193      0.0429
     86  CG         7.5100  184.2950  -21.8190 C.3   193  GLU193      0.1163
     87  CD         6.1480  184.7630  -21.3590 C.2   193  GLU193      0.3649
     88  OE1        5.3410  185.2010  -22.2060 O.co2 193  GLU193     -0.2457
     89  OE2        5.8940  184.7050  -20.1420 O.co2 193  GLU193     -0.2457
     90  N          7.1740  187.7730  -20.8500 N.am  194  MET194     -0.1963
     91  CA         6.4070  188.8340  -20.1930 C.3   194  MET194      0.1736
     92  C          4.8780  188.8390  -20.3710 C.2   194  MET194      0.2616
     93  O          4.2120  189.7610  -19.8970 O.2   194  MET194     -0.2715
     94  CB         6.9970  190.2030  -20.5670 C.3   194  MET194      0.0427
     95  CG         8.3630  190.4830  -19.9390 C.3   194  MET194      0.0599
     96  SD         9.0380  192.1120  -20.3130 S.3   194  MET194     -0.1393
     97  CE         8.0010  193.1620  -19.2940 C.3   194  MET194      0.0692
     98  N          4.3190  187.8160  -21.0170 N.am  195  GLU195     -0.1977
     99  CA         2.8860  187.8190  -21.3350 C.3   195  GLU195      0.1602
    100  C          2.1200  186.5370  -20.9980 C.2   195  GLU195      0.2287
    101  O          0.8960  186.5760  -20.8340 O.2   195  GLU195     -0.2864
    102  CB         2.6700  188.1450  -22.8180 C.3   195  GLU195      0.0415
    103  CG         2.9150  189.5960  -23.1940 C.3   195  GLU195      0.1163
    104  CD         4.3430  189.8500  -23.6390 C.2   195  GLU195      0.3649
    105  OE1        4.8310  189.1440  -24.5460 O.co2 195  GLU195     -0.2457
    106  OE2        4.9820  190.7610  -23.0840 O.co2 195  GLU195     -0.2457
    107  N         16.4130  183.6290  -27.9740 N.3   217  ILE217     -0.1231
    108  CA        17.3660  184.5360  -28.6110 C.3   217  ILE217      0.1692
    109  C         18.5220  184.9040  -27.6790 C.2   217  ILE217      0.2591
    110  O         19.5390  185.4460  -28.1200 O.2   217  ILE217     -0.2718
    111  CB        16.6630  185.8010  -29.1830 C.3   217  ILE217      0.0266
    112  CG1       15.7220  186.4360  -28.1540 C.3   217  ILE217      0.0019
    113  CG2       15.9220  185.4610  -30.4780 C.3   217  ILE217      0.0020
    114  CD1       15.4610  187.9140  -28.3900 C.3   217  ILE217      0.0001
    115  N         18.3560  184.6060  -26.3930 N.am  218  VAL218     -0.1980
    116  CA        19.3910  184.8730  -25.4000 C.3   218  VAL218      0.1595
    117  C         19.4300  183.7920  -24.3210 C.2   218  VAL218      0.2287
    118  O         18.3930  183.2530  -23.9250 O.2   218  VAL218     -0.2864
    119  CB        19.2470  186.3040  -24.7940 C.3   218  VAL218      0.0276
    120  CG1       18.9150  186.2780  -23.2970 C.3   218  VAL218      0.0022
    121  CG2       20.4990  187.1150  -25.0510 C.3   218  VAL218      0.0022
    122  N         20.8920  183.3380  -20.4610 N.3   220  ARG220     -0.1245
    123  CA        21.3510  184.1450  -19.3320 C.3   220  ARG220      0.1563
    124  C         22.6010  183.6040  -18.6360 C.2   220  ARG220      0.2260
    125  O         23.2720  184.3340  -17.9030 O.2   220  ARG220     -0.2867
    126  CB        20.2170  184.3370  -18.3170 C.3   220  ARG220      0.0307
    127  CG        19.0090  185.1040  -18.8570 C.3   220  ARG220      0.0489
    128  CD        19.2200  186.6110  -19.0040 C.3   220  ARG220      0.2205
    129  NE        19.6380  187.2470  -17.7530 N.pl3 220  ARG220     -0.0865
    130  CZ        18.8120  187.6280  -16.7830 C.cat 220  ARG220      0.5346
    131  NH1       17.5030  187.4430  -16.9000 N.pl3 220  ARG220      0.1354
    132  NH2       19.2990  188.1950  -15.6880 N.pl3 220  ARG220      0.1354
    133  N         24.6190  188.1630  -22.6440 N.3   224  GLU224     -0.1245
    134  CA        23.4430  189.0290  -22.5330 C.3   224  GLU224      0.1567
    135  C         23.0200  189.6790  -23.8570 C.2   224  GLU224      0.2260
    136  O         21.8270  189.8860  -24.0960 O.2   224  GLU224     -0.2867
    137  CB        23.6670  190.0990  -21.4500 C.3   224  GLU224      0.0388
    138  CG        22.5130  191.0760  -21.2440 C.3   224  GLU224      0.1160
    139  CD        21.2660  190.4220  -20.6780 C.2   224  GLU224      0.3649
    140  OE1       21.0890  190.4500  -19.4410 O.co2 224  GLU224     -0.2457
    141  OE2       20.4590  189.8850  -21.4690 O.co2 224  GLU224     -0.2457
    142  N         22.5110  189.5620  -27.7890 N.3   226  PRO226     -0.2116
    143  CA        22.3910  188.7880  -29.0300 C.3   226  PRO226      0.1372
    144  C         22.7550  189.6240  -30.2590 C.2   226  PRO226      0.2244
    145  O         22.7040  190.8560  -30.1970 O.2   226  PRO226     -0.2868
    146  CB        20.9070  188.4100  -29.0610 C.3   226  PRO226      0.0268
    147  CG        20.2070  189.4990  -28.2920 C.3   226  PRO226      0.0207
    148  CD        21.2150  190.1250  -27.3630 C.3   226  PRO226      0.0892
    149  N         19.0160  186.3690  -34.2400 N.3   231  MET231     -0.1245
    150  CA        17.7880  186.9180  -33.6640 C.3   231  MET231      0.1570
    151  C         16.6120  186.8580  -34.6410 C.2   231  MET231      0.2261
    152  O         15.5130  186.4350  -34.2730 O.2   231  MET231     -0.2867
    153  CB        18.0200  188.3620  -33.2150 C.3   231  MET231      0.0387
    154  CG        17.2740  188.7590  -31.9560 C.3   231  MET231      0.0595
    155  SD        17.8430  190.3460  -31.3180 S.3   231  MET231     -0.1393
    156  CE        16.3450  190.9690  -30.5580 C.3   231  MET231      0.0692
@<TRIPOS>BOND
     1   151   152    2
     2   151   150    1
     3   149   150    1
     4   150   153    1
     5   153   154    1
     6   154   155    1
     7   155   156    1
     8   113   111    1
     9   144   145    2
    10   144   143    1
    11    26    24    1
    12   111   108    1
    13   111   112    1
    14   146   143    1
    15   146   147    1
    16   143   142    1
    17    11    12    2
    18    11    10    1
    19     9    10    1
    20   108   107    1
    21   108   109    1
    22    10    13    1
    23   114   112    1
    24   147   148    1
    25    24    21    1
    26    24    25    1
    27   110   109    2
    28    20    21    1
    29    21    22    1
    30   142   148    1
    31   109   115   am
    32    13    14    1
    33    14    15    1
    34   115   116    1
    35    18    17    1
    36    22    27   am
    37    22    23    2
    38    27    28    1
    39    17    16    2
    40    17    19    1
    41   116   119    1
    42   116   117    1
    43    15    16    1
    44    30    29    2
    45     8     6    1
    46     1     2    1
    47     6     5    1
    48   121   119    1
    49    33    31    1
    50   119   120    1
    51    28    29    1
    52    28    31    1
    53   105   104   ar
    54    29    34   am
    55   117   118    2
    56    31    32    1
    57   136   135    2
    58     2     5    1
    59     2     3    1
    60   135   134    1
    61     5     7    1
    62   104   103    1
    63   104   106   ar
    64   103   102    1
    65    34    35    1
    66   102    99    1
    67     3     4    2
    68   133   134    1
    69   134   137    1
    70    35    36    1
    71    46    48   ar
    72    46    44   ar
    73    88    87   ar
    74    48    47   ar
    75    85    86    1
    76    85    82    1
    77    86    87    1
    78    36    37    2
    79   141   139   ar
    80   137   138    1
    81    87    89   ar
    82    44    43   ar
    83    99    98    1
    84    99   100    1
    85    47    45   ar
    86   138   139    1
    87    72    71    2
    88    98    92   am
    89   100   101    2
    90    82    83    1
    91    82    81    1
    92    90    91    1
    93    90    83   am
    94    68    66    1
    95   139   140   ar
    96    94    91    1
    97    94    95    1
    98   122   123    1
    99    43    45   ar
   100    43    42    1
   101    92    91    1
   102    92    93    2
   103    96    95    1
   104    96    97    1
   105    83    84    2
   106    71    81   am
   107    71    70    1
   108    66    65    2
   109    66    67    1
   110    42    39    1
   111   123   124    1
   112   123   126    1
   113    69    70    1
   114    65    64    1
   115   128   127    1
   116   128   129    1
   117    70    73    1
   118   127   126    1
   119    56    55    2
   120   124   125    2
   121    57    55   am
   122    73    74    1
   123    39    38    1
   124    39    40    1
   125    64    63    1
   126    55    54    1
   127   129   130    2
   128    41    40    2
   129    74    75   ar
   130    74    76   ar
   131   131   130    1
   132   130   132    1
   133    63    62    1
   134    75    77   ar
   135    54    53    1
   136    53    50    1
   137    76    78   ar
   138    62    59    1
   139    77    79   ar
   140    78    79   ar
   141    52    51    2
   142    50    51    1
   143    50    49    1
   144    59    58    1
   145    59    60    1
   146    79    80    1
   147    60    61    2
