@<TRIPOS>MOLECULE
tmp/1u1fB01.pdb
 169 160 0 0 0
SMALL
GASTEIGER

@<TRIPOS>ATOM
      1  N         50.0040  160.4330   68.3960 N.3    67  ILE67      -0.1245
      2  CA        50.7480  161.6490   68.7060 C.3    67  ILE67       0.1561
      3  C         49.9110  162.8850   68.3720 C.2    67  ILE67       0.2260
      4  O         49.4090  163.0170   67.2520 O.2    67  ILE67      -0.2867
      5  CB        52.0860  161.6860   67.9230 C.3    67  ILE67       0.0252
      6  CG1       53.0400  160.5940   68.4170 C.3    67  ILE67       0.0019
      7  CG2       52.7410  163.0620   68.0330 C.3    67  ILE67       0.0019
      8  CD1       54.1300  160.2350   67.4170 C.3    67  ILE67       0.0001
      9  N         46.1960  159.8280   81.1580 N.3    89  ARG89      -0.1245
     10  CA        47.2310  159.7490   80.1360 C.3    89  ARG89       0.1563
     11  C         48.5680  159.3200   80.7230 C.2    89  ARG89       0.2260
     12  O         49.0280  159.8730   81.7250 O.2    89  ARG89      -0.2867
     13  CB        47.3830  161.0760   79.3850 C.3    89  ARG89       0.0307
     14  CG        48.2580  160.9670   78.1370 C.3    89  ARG89       0.0489
     15  CD        48.4340  162.2560   77.3410 C.3    89  ARG89       0.2205
     16  NE        49.8360  162.6810   77.2940 N.pl3  89  ARG89      -0.0865
     17  CZ        50.8150  162.0310   76.6590 C.cat  89  ARG89       0.5346
     18  NH1       50.5670  160.9100   75.9900 N.pl3  89  ARG89       0.1354
     19  NH2       52.0520  162.5090   76.6920 N.pl3  89  ARG89       0.1354
     20  N         55.5440  159.5160   77.2850 N.3    92  THR92      -0.1203
     21  CA        56.9850  159.7220   77.3820 C.3    92  THR92       0.1994
     22  C         57.2380  161.2160   77.3010 C.2    92  THR92       0.2619
     23  O         56.3890  161.9650   76.8100 O.2    92  THR92      -0.2717
     24  CB        57.7380  159.0180   76.2360 C.3    92  THR92       0.1784
     25  OG1       57.1440  159.3740   74.9800 O.3    92  THR92      -0.2211
     26  CG2       57.5780  157.5040   76.3160 C.3    92  THR92       0.0376
     27  N         58.4020  161.6540   77.7740 N.am   93  THR93      -0.1938
     28  CA        58.7080  163.0800   77.7970 C.3    93  THR93       0.2028
     29  C         60.2010  163.4080   77.8000 C.2    93  THR93       0.2642
     30  O         61.0350  162.5910   78.2000 O.2    93  THR93      -0.2714
     31  CB        57.9820  163.7740   78.9850 C.3    93  THR93       0.1808
     32  OG1       58.1120  165.1940   78.8630 O.3    93  THR93      -0.2208
     33  CG2       58.6590  163.4590   80.3200 C.3    93  THR93       0.0379
     34  N         60.5150  164.6120   77.3310 N.am   94  GLY94      -0.1954
     35  CA        61.8500  165.1660   77.4280 C.3    94  GLY94       0.1869
     36  C         61.8570  166.2490   78.4860 C.2    94  GLY94       0.2309
     37  O         61.1380  167.2420   78.3640 O.2    94  GLY94      -0.2863
     38  N         57.2060  168.1200   67.4930 N.3   160  PHE160     -0.1241
     39  CA        58.3040  167.4870   68.2080 C.3   160  PHE160      0.1605
     40  C         59.5810  168.3140   68.0770 C.2   160  PHE160      0.2264
     41  O         60.4110  168.3410   68.9910 O.2   160  PHE160     -0.2867
     42  CB        58.5330  166.0700   67.6720 C.3   160  PHE160      0.0534
     43  CG        59.5600  165.2840   68.4390 C.ar  160  PHE160     -0.0203
     44  CD1       59.1910  164.5260   69.5470 C.ar  160  PHE160     -0.0042
     45  CD2       60.8980  165.2940   68.0480 C.ar  160  PHE160     -0.0042
     46  CE1       60.1380  163.7980   70.2580 C.ar  160  PHE160     -0.0003
     47  CE2       61.8520  164.5700   68.7540 C.ar  160  PHE160     -0.0003
     48  CZ        61.4700  163.8220   69.8610 C.ar  160  PHE160     -0.0000
     49  N         59.6010  172.4790   70.2850 N.3   164  GLN164     -0.1245
     50  CA        60.4260  172.0710   71.4190 C.3   164  GLN164      0.1566
     51  C         61.8570  172.5890   71.2230 C.2   164  GLN164      0.2260
     52  O         62.8020  172.1150   71.8570 O.2   164  GLN164     -0.2867
     53  CB        60.3860  170.5460   71.5910 C.3   164  GLN164      0.0367
     54  CG        58.9920  170.0100   71.9240 C.3   164  GLN164      0.0905
     55  CD        58.9300  168.4960   72.0700 C.2   164  GLN164      0.2608
     56  OE1       59.8630  167.8670   72.5790 O.2   164  GLN164     -0.2717
     57  NE2       57.8220  167.9100   71.6340 N.am  164  GLN164     -0.0878
     58  N         64.1250  172.3150   68.7570 N.3   166  ARG166     -0.1245
     59  CA        65.1610  171.4420   68.2170 C.3   166  ARG166      0.1563
     60  C         65.7070  172.0410   66.9280 C.2   166  ARG166      0.2260
     61  O         64.9430  172.3940   66.0270 O.2   166  ARG166     -0.2867
     62  CB        64.6090  170.0410   67.9560 C.3   166  ARG166      0.0307
     63  CG        64.5430  169.1670   69.1910 C.3   166  ARG166      0.0489
     64  CD        64.0500  167.7560   68.9270 C.3   166  ARG166      0.2205
     65  NE        64.2210  166.9010   70.0990 N.pl3 166  ARG166     -0.0865
     66  CZ        63.3150  166.7380   71.0590 C.cat 166  ARG166      0.5346
     67  NH1       62.1450  167.3670   71.0080 N.pl3 166  ARG166      0.1354
     68  NH2       63.5800  165.9360   72.0800 N.pl3 166  ARG166      0.1354
     69  N         58.6640  168.6780   78.0420 N.3   193  TYR193     -0.1227
     70  CA        57.9310  168.7700   76.7860 C.3   193  TYR193      0.1736
     71  C         57.2280  167.4480   76.4850 C.2   193  TYR193      0.2595
     72  O         57.8430  166.3800   76.5490 O.2   193  TYR193     -0.2718
     73  CB        58.8840  169.0560   75.6240 C.3   193  TYR193      0.0548
     74  CG        59.3150  170.4940   75.4290 C.ar  193  TYR193     -0.0200
     75  CD1       60.6680  170.8270   75.4400 C.ar  193  TYR193     -0.0009
     76  CD2       58.3870  171.5100   75.1860 C.ar  193  TYR193     -0.0009
     77  CE1       61.0900  172.1310   75.2450 C.ar  193  TYR193      0.0417
     78  CE2       58.8030  172.8300   74.9870 C.ar  193  TYR193      0.0417
     79  CZ        60.1600  173.1260   75.0190 C.ar  193  TYR193      0.1957
     80  OH        60.6060  174.4090   74.8270 O.3   193  TYR193     -0.2866
     81  N         55.9410  167.5270   76.1640 N.am  194  GLU194     -0.1965
     82  CA        55.2370  166.4310   75.4920 C.3   194  GLU194      0.1733
     83  C         54.2190  167.0040   74.4980 C.2   194  GLU194      0.2616
     84  O         54.2620  168.2000   74.1980 O.2   194  GLU194     -0.2715
     85  CB        54.6330  165.4110   76.4760 C.3   194  GLU194      0.0429
     86  CG        53.7060  165.9750   77.5360 C.3   194  GLU194      0.1163
     87  CD        52.3140  166.2180   77.0060 C.2   194  GLU194      0.3649
     88  OE1       51.5700  165.2400   76.7930 O.co2 194  GLU194     -0.2457
     89  OE2       51.9740  167.3920   76.7850 O.co2 194  GLU194     -0.2457
     90  N         53.3190  166.1710   73.9810 N.am  195  MET195     -0.1963
     91  CA        52.5420  166.5620   72.8030 C.3   195  MET195      0.1736
     92  C         51.0160  166.3800   72.8560 C.2   195  MET195      0.2616
     93  O         50.3350  166.6360   71.8580 O.2   195  MET195     -0.2715
     94  CB        53.1260  165.8880   71.5490 C.3   195  MET195      0.0427
     95  CG        54.5190  166.4010   71.1620 C.3   195  MET195      0.0599
     96  SD        55.2010  165.7050   69.6430 S.3   195  MET195     -0.1393
     97  CE        54.0990  166.4160   68.4090 C.3   195  MET195      0.0692
     98  N         50.4720  165.9600   74.0000 N.am  196  GLU196     -0.1977
     99  CA        49.0320  165.6720   74.0840 C.3   196  GLU196      0.1602
    100  C         48.2870  166.3130   75.2560 C.2   196  GLU196      0.2287
    101  O         47.0740  166.5150   75.1750 O.2   196  GLU196     -0.2864
    102  CB        48.7760  164.1580   74.1090 C.3   196  GLU196      0.0415
    103  CG        49.0330  163.4410   72.7940 C.3   196  GLU196      0.1163
    104  CD        50.4710  162.9790   72.6580 C.2   196  GLU196      0.3649
    105  OE1       51.0320  162.4650   73.6440 O.co2 196  GLU196     -0.2457
    106  OE2       51.0480  163.1320   71.5660 O.co2 196  GLU196     -0.2457
    107  N         62.5540  160.0750   79.5030 N.3   218  ILE218     -0.1231
    108  CA        63.4640  159.2330   78.7270 C.3   218  ILE218      0.1692
    109  C         64.6570  160.0250   78.1870 C.2   218  ILE218      0.2591
    110  O         65.6090  159.4470   77.6570 O.2   218  ILE218     -0.2718
    111  CB        62.7090  158.4650   77.6020 C.3   218  ILE218      0.0266
    112  CG1       62.2150  159.4150   76.5060 C.3   218  ILE218      0.0019
    113  CG2       61.5540  157.6510   78.1890 C.3   218  ILE218      0.0020
    114  CD1       61.9560  158.7310   75.1700 C.3   218  ILE218      0.0001
    115  N         64.5980  161.3470   78.3510 N.am  219  VAL219     -0.1980
    116  CA        65.6720  162.2470   77.9330 C.3   219  VAL219      0.1595
    117  C         65.6550  163.5540   78.7320 C.2   219  VAL219      0.2287
    118  O         64.5890  164.1010   79.0270 O.2   219  VAL219     -0.2864
    119  CB        65.6200  162.5240   76.3950 C.3   219  VAL219      0.0276
    120  CG1       65.2530  163.9740   76.0750 C.3   219  VAL219      0.0022
    121  CG2       66.9330  162.1540   75.7460 C.3   219  VAL219      0.0022
    122  N         67.0100  167.3750   78.2460 N.3   221  ARG221     -0.1245
    123  CA        67.4510  168.2570   77.1650 C.3   221  ARG221      0.1563
    124  C         68.7490  169.0050   77.4690 C.2   221  ARG221      0.2260
    125  O         69.4880  169.3640   76.5490 O.2   221  ARG221     -0.2867
    126  CB        66.3410  169.2420   76.7850 C.3   221  ARG221      0.0307
    127  CG        65.1080  168.5950   76.1500 C.3   221  ARG221      0.0489
    128  CD        65.3090  168.0900   74.7230 C.3   221  ARG221      0.2205
    129  NE        65.7610  169.1420   73.8110 N.pl3 221  ARG221     -0.0865
    130  CZ        64.9540  169.9690   73.1500 C.cat 221  ARG221      0.5346
    131  NH1       63.6360  169.8820   73.2890 N.pl3 221  ARG221      0.1354
    132  NH2       65.4680  170.8900   72.3460 N.pl3 221  ARG221      0.1354
    133  N         70.4180  164.4490   73.7620 N.3   225  GLU225     -0.1231
    134  CA        69.3360  164.4820   72.7770 C.3   225  GLU225      0.1699
    135  C         68.7560  163.0930   72.5150 C.2   225  GLU225      0.2592
    136  O         67.5410  162.9040   72.5730 O.2   225  GLU225     -0.2718
    137  CB        69.8170  165.0950   71.4580 C.3   225  GLU225      0.0402
    138  CG        69.2720  166.4840   71.1550 C.3   225  GLU225      0.1161
    139  CD        67.7610  166.5670   71.2540 C.2   225  GLU225      0.3649
    140  OE1       67.0620  166.0200   70.3710 O.co2 225  GLU225     -0.2457
    141  OE2       67.2730  167.1860   72.2230 O.co2 225  GLU225     -0.2457
    142  N         69.6280  162.1300   72.2190 N.am  226  ILE226     -0.1966
    143  CA        69.2010  160.7660   71.9100 C.3   226  ILE226      0.1712
    144  C         68.9950  159.9660   73.1990 C.2   226  ILE226      0.2458
    145  O         69.9060  159.8700   74.0240 O.2   226  ILE226     -0.2730
    146  CB        70.2160  160.0670   70.9630 C.3   226  ILE226      0.0289
    147  CG1       70.2980  160.8060   69.6240 C.3   226  ILE226      0.0022
    148  CG2       69.8410  158.5950   70.7370 C.3   226  ILE226      0.0023
    149  CD1       71.6430  160.6970   68.9380 C.3   226  ILE226      0.0001
    150  N         67.7960  159.4050   73.3750 N.am  227  PRO227     -0.2727
    151  CA        67.4780  158.6190   74.5720 C.3   227  PRO227      0.1402
    152  C         68.1960  157.2750   74.5940 C.2   227  PRO227      0.2269
    153  O         68.4700  156.6920   73.5410 O.2   227  PRO227     -0.2865
    154  CB        65.9640  158.3950   74.4570 C.3   227  PRO227      0.0296
    155  CG        65.5010  159.3390   73.3970 C.3   227  PRO227      0.0237
    156  CD        66.6480  159.4800   72.4530 C.3   227  PRO227      0.0939
    157  N         67.9880  153.4770   75.0090 N.3   229  ALA229     -0.1245
    158  CA        66.9080  152.5270   74.7210 C.3   229  ALA229      0.1562
    159  C         66.5980  151.5640   75.8710 C.2   229  ALA229      0.2260
    160  O         65.4600  151.1070   76.0060 O.2   229  ALA229     -0.2867
    161  CB        67.2010  151.7530   73.4380 C.3   229  ALA229      0.0290
    162  N         64.7850  153.6860   78.6200 N.3   232  MET232     -0.1245
    163  CA        63.4870  154.0400   78.0460 C.3   232  MET232      0.1570
    164  C         62.4590  152.9410   78.3200 C.2   232  MET232      0.2261
    165  O         61.3630  153.2170   78.8110 O.2   232  MET232     -0.2867
    166  CB        63.6160  154.2930   76.5390 C.3   232  MET232      0.0387
    167  CG        62.3710  154.8690   75.8800 C.3   232  MET232      0.0595
    168  SD        61.3790  153.6050   75.0620 S.3   232  MET232     -0.1393
    169  CE        59.9220  154.5500   74.5880 C.3   232  MET232      0.0692
@<TRIPOS>BOND
     1    61    60    2
     2    60    59    1
     3     4     3    2
     4     8     6    1
     5    38    39    1
     6    42    39    1
     7    42    43    1
     8     5     7    1
     9     5     6    1
    10     5     2    1
    11    62    59    1
    12    62    63    1
    13    45    43   ar
    14    45    47   ar
    15    40    39    1
    16    40    41    2
    17    59    58    1
    18     3     2    1
    19     1     2    1
    20    97    96    1
    21    43    44   ar
    22    47    48   ar
    23    64    63    1
    24    64    65    1
    25   149   147    1
    26    44    46   ar
    27   147   146    1
    28    96    95    1
    29    48    46   ar
    30    65    66    2
    31    49    50    1
    32   140   139   ar
    33   148   146    1
    34   146   143    1
    35    67    66    1
    36    66    68    1
    37   138   139    1
    38   138   137    1
    39    95    94    1
    40    51    50    1
    41    51    52    2
    42   139   141   ar
    43    50    53    1
    44   137   134    1
    45    94    91    1
    46   106   104   ar
    47    53    54    1
    48    57    55   am
    49    93    92    2
    50   143   142    1
    51   143   144    1
    52    54    55    1
    53    55    56    2
    54   142   135   am
    55   132   130    1
    56   156   150    1
    57   156   155    1
    58   135   136    2
    59   135   134    1
    60   104   103    1
    61   104   105   ar
    62   134   133    1
    63   103   102    1
    64    91    92    1
    65    91    90    1
    66    92    98   am
    67   130   131    1
    68   130   129    2
    69   144   150   am
    70   144   145    2
    71   150   151    1
    72   155   154    1
    73   161   158    1
    74   153   152    2
    75   129   128    1
    76    90    83   am
    77    98    99    1
    78    99   102    1
    79    99   100    1
    80    84    83    2
    81   154   151    1
    82    83    82    1
    83   151   152    1
    84   169   168    1
    85   158   157    1
    86   158   159    1
    87   128   127    1
    88    80    79    1
    89    25    24    1
    90    78    79   ar
    91    78    76   ar
    92    79    77   ar
    93   168   167    1
    94   114   112    1
    95   101   100    2
    96    76    74   ar
    97    77    75   ar
    98    74    75   ar
    99    74    73    1
   100    82    81    1
   101    82    85    1
   102    73    70    1
   103   121   119    1
   104   159   160    2
   105   167   166    1
   106    18    17    1
   107   120   119    1
   108   127   126    1
   109    81    71   am
   110    24    26    1
   111    24    21    1
   112   119   116    1
   113    85    86    1
   114    71    72    2
   115    71    70    1
   116   112   111    1
   117   166   163    1
   118   125   124    2
   119    17    19    1
   120    17    16    2
   121    89    87   ar
   122   126   123    1
   123    70    69    1
   124    88    87   ar
   125    23    22    2
   126    87    86    1
   127   123   124    1
   128   123   122    1
   129    20    21    1
   130    16    15    1
   131    22    21    1
   132    22    27   am
   133    34    35    1
   134    34    29   am
   135    15    14    1
   136    35    36    1
   137   111   113    1
   138   111   108    1
   139   110   109    2
   140    27    28    1
   141    28    29    1
   142    28    31    1
   143    29    30    2
   144   116   115    1
   145   116   117    1
   146   163   164    1
   147   163   162    1
   148    14    13    1
   149   109   115   am
   150   109   108    1
   151   164   165    2
   152    37    36    2
   153   108   107    1
   154   117   118    2
   155    32    31    1
   156    31    33    1
   157    13    10    1
   158    10    11    1
   159    10     9    1
   160    11    12    2
