@<TRIPOS>MOLECULE
tmp/1u1jA01.pdb
 132 128 0 0 0
SMALL
GASTEIGER

@<TRIPOS>ATOM
      1  N        -59.3290   36.6790  -82.8660 N.3    13  ARG13      -0.1245
      2  CA       -59.2610   35.8920  -81.6410 C.3    13  ARG13       0.1563
      3  C        -60.4380   34.9540  -81.4660 C.2    13  ARG13       0.2260
      4  O        -60.9380   34.7800  -80.3580 O.2    13  ARG13      -0.2867
      5  CB       -59.1500   36.8190  -80.4340 C.3    13  ARG13       0.0307
      6  CG       -57.8930   37.6770  -80.4560 C.3    13  ARG13       0.0489
      7  CD       -57.8820   38.6380  -79.2970 C.3    13  ARG13       0.2205
      8  NE       -59.0080   39.5530  -79.3750 N.pl3  13  ARG13      -0.0865
      9  CZ       -59.4440   40.2840  -78.3550 C.cat  13  ARG13       0.5346
     10  NH1      -58.8450   40.2070  -77.1700 N.pl3  13  ARG13       0.1354
     11  NH2      -60.4860   41.0870  -78.5180 N.pl3  13  ARG13       0.1354
     12  N        -60.0680   32.3240  -78.9070 N.3    16  LYS16      -0.1245
     13  CA       -60.0640   32.8820  -77.5590 C.3    16  LYS16       0.1561
     14  C        -61.4540   32.8380  -76.9400 C.2    16  LYS16       0.2260
     15  O        -61.6230   32.4350  -75.7940 O.2    16  LYS16      -0.2867
     16  CB       -59.5770   34.3290  -77.5820 C.3    16  LYS16       0.0271
     17  CG       -59.7300   35.0400  -76.2440 C.3    16  LYS16       0.0035
     18  CD       -59.5280   36.5440  -76.3830 C.3    16  LYS16       0.0206
     19  CE       -59.8430   37.2590  -75.0850 C.3    16  LYS16       0.1093
     20  NZ       -58.9270   36.8550  -73.9810 N.3    16  LYS16      -0.1314
     21  N        -42.3660   36.6230  -75.1360 N.3   109  ASN109     -0.1240
     22  CA       -43.4360   37.0370  -74.2440 C.3   109  ASN109      0.1653
     23  C        -44.4720   35.9360  -74.1000 C.2   109  ASN109      0.2266
     24  O        -45.5780   36.2000  -73.6280 O.2   109  ASN109     -0.2867
     25  CB       -44.1190   38.3060  -74.7670 C.3   109  ASN109      0.1155
     26  CG       -43.2320   39.5450  -74.6470 C.2   109  ASN109      0.2627
     27  OD1      -43.6380   40.6630  -75.0180 O.2   109  ASN109     -0.2716
     28  ND2      -42.0140   39.3550  -74.1260 N.am  109  ASN109     -0.0877
     29  N        -45.7810   31.9760  -72.7260 N.3   111  HIS111     -0.1241
     30  CA       -45.6710   31.0790  -71.5640 C.3   111  HIS111      0.1621
     31  C        -46.1900   29.6630  -71.8140 C.2   111  HIS111      0.2264
     32  O        -47.3270   29.4680  -72.2380 O.2   111  HIS111     -0.2867
     33  CB       -46.4170   31.6670  -70.3480 C.3   111  HIS111      0.0745
     34  CG       -45.9010   33.0020  -69.9020 C.ar  111  HIS111      0.0817
     35  ND1      -46.2640   34.1850  -70.5110 N.ar  111  HIS111     -0.2268
     36  CD2      -44.9890   33.3330  -68.9580 C.ar  111  HIS111      0.1154
     37  CE1      -45.5930   35.1840  -69.9680 C.ar  111  HIS111      0.1986
     38  NE2      -44.8120   34.6930  -69.0250 N.ar  111  HIS111     -0.2212
     39  N        -53.7060   50.5430  -68.9900 N.3   473  ASP473     -0.1239
     40  CA       -52.5020   49.7250  -69.0980 C.3   473  ASP473      0.1674
     41  C        -51.3060   50.5130  -68.5810 C.2   473  ASP473      0.2266
     42  O        -51.1370   51.6890  -68.9140 O.2   473  ASP473     -0.2867
     43  CB       -52.2480   49.2970  -70.5430 C.3   473  ASP473      0.1410
     44  CG       -51.0910   48.3270  -70.6550 C.2   473  ASP473      0.3668
     45  OD1      -51.0790   47.3450  -69.8850 O.co2 473  ASP473     -0.2456
     46  OD2      -50.1980   48.5400  -71.5030 O.co2 473  ASP473     -0.2456
     47  N        -53.0470   41.5250  -81.7970 N.3   491  TRP491     -0.1241
     48  CA       -52.9220   40.6870  -80.6280 C.3   491  TRP491      0.1605
     49  C        -51.8910   39.5830  -80.8110 C.2   491  TRP491      0.2264
     50  O        -51.6480   39.1060  -81.9270 O.2   491  TRP491     -0.2867
     51  CB       -54.2690   40.0700  -80.2800 C.3   491  TRP491      0.0550
     52  CG       -55.2930   41.0760  -79.9860 C.ar  491  TRP491      0.0003
     53  CD1      -56.0710   41.7480  -80.8870 C.ar  491  TRP491      0.0946
     54  CD2      -55.6130   41.6010  -78.7010 C.ar  491  TRP491      0.0152
     55  NE1      -56.8560   42.6680  -80.2370 N.ar  491  TRP491     -0.2442
     56  CE2      -56.5940   42.6010  -78.8900 C.ar  491  TRP491      0.0810
     57  CE3      -55.1630   41.3310  -77.4000 C.ar  491  TRP491      0.0012
     58  CZ2      -57.1380   43.3340  -77.8230 C.ar  491  TRP491      0.0191
     59  CZ3      -55.7020   42.0560  -76.3400 C.ar  491  TRP491      0.0001
     60  CH2      -56.6780   43.0470  -76.5600 C.ar  491  TRP491      0.0015
     61  N        -50.3660   35.1990  -75.1820 N.3   494  SER494     -0.1202
     62  CA       -49.4630   35.2220  -74.0410 C.3   494  SER494      0.2020
     63  C        -49.4830   33.8710  -73.3270 C.2   494  SER494      0.2618
     64  O        -48.4500   33.3650  -72.9020 O.2   494  SER494     -0.2717
     65  CB       -49.8760   36.3380  -73.0810 C.3   494  SER494      0.2103
     66  OG       -48.8240   36.6490  -72.1860 O.3   494  SER494     -0.2182
     67  N        -50.6700   33.2910  -73.2070 N.am  495  TYR495     -0.1975
     68  CA       -50.8310   31.9960  -72.5620 C.3   495  TYR495      0.1639
     69  C        -52.3320   31.7190  -72.4780 C.2   495  TYR495      0.2290
     70  O        -53.1180   32.6330  -72.2240 O.2   495  TYR495     -0.2864
     71  CB       -50.1900   32.0130  -71.1590 C.3   495  TYR495      0.0560
     72  CG       -51.1200   32.4670  -70.0650 C.ar  495  TYR495     -0.0198
     73  CD1      -52.0100   31.5730  -69.4800 C.ar  495  TYR495     -0.0009
     74  CD2      -51.1720   33.8050  -69.6740 C.ar  495  TYR495     -0.0009
     75  CE1      -52.9390   31.9900  -68.5430 C.ar  495  TYR495      0.0417
     76  CE2      -52.0970   34.2420  -68.7340 C.ar  495  TYR495      0.0417
     77  CZ       -52.9880   33.3260  -68.1710 C.ar  495  TYR495      0.1957
     78  OH       -53.9550   33.7400  -67.2660 O.3   495  TYR495     -0.2866
     79  N        -55.5220   34.1410  -73.1130 N.3   498  ARG498     -0.1231
     80  CA       -55.1050   35.5140  -72.8560 C.3   498  ARG498      0.1694
     81  C        -54.0700   36.0280  -73.8600 C.2   498  ARG498      0.2592
     82  O        -53.0680   35.3620  -74.1350 O.2   498  ARG498     -0.2718
     83  CB       -54.5280   35.6150  -71.4380 C.3   498  ARG498      0.0321
     84  CG       -55.1960   34.6830  -70.4210 C.3   498  ARG498      0.0489
     85  CD       -56.4380   35.2760  -69.7650 C.3   498  ARG498      0.2205
     86  NE       -57.2220   36.0990  -70.6850 N.pl3 498  ARG498     -0.0865
     87  CZ       -58.4670   36.5150  -70.4510 C.cat 498  ARG498      0.5346
     88  NH1      -59.0820   36.1740  -69.3190 N.pl3 498  ARG498      0.1354
     89  NH2      -59.0880   37.2880  -71.3400 N.pl3 498  ARG498      0.1354
     90  N        -54.3210   37.2260  -74.3890 N.am  499  CYS499     -0.1956
     91  CA       -53.4340   37.8720  -75.3510 C.3   499  CYS499      0.1843
     92  C        -53.0320   39.2580  -74.8640 C.2   499  CYS499      0.2625
     93  O        -53.5510   39.7620  -73.8640 O.2   499  CYS499     -0.2714
     94  CB       -54.1380   38.0380  -76.6890 C.3   499  CYS499      0.0997
     95  SG       -54.8170   36.5400  -77.3580 S.3   499  CYS499     -0.0797
     96  N        -52.1040   39.8700  -75.5910 N.am  500  VAL500     -0.1977
     97  CA       -51.6360   41.2160  -75.2880 C.3   500  VAL500      0.1596
     98  C        -51.5760   41.9380  -76.6220 C.2   500  VAL500      0.2287
     99  O        -51.3790   41.3050  -77.6460 O.2   500  VAL500     -0.2864
    100  CB       -50.2050   41.2220  -74.6650 C.3   500  VAL500      0.0276
    101  CG1      -50.1740   40.4160  -73.3910 C.3   500  VAL500      0.0022
    102  CG2      -49.2110   40.6720  -75.6410 C.3   500  VAL500      0.0022
    103  N        -49.3370   44.7440  -77.8160 N.3   502  PRO502     -0.2116
    104  CA       -48.1680   45.6060  -77.6200 C.3   502  PRO502      0.1372
    105  C        -48.1500   46.9120  -78.3980 C.2   502  PRO502      0.2244
    106  O        -48.5200   46.9470  -79.5730 O.2   502  PRO502     -0.2868
    107  CB       -46.9980   44.7100  -78.0310 C.3   502  PRO502      0.0268
    108  CG       -47.5090   43.3310  -77.8030 C.3   502  PRO502      0.0207
    109  CD       -48.9220   43.4210  -78.3120 C.3   502  PRO502      0.0892
    110  N        -42.1840   45.4280  -73.2880 N.3   539  TRP539     -0.1241
    111  CA       -43.5690   45.1080  -73.5890 C.3   539  TRP539      0.1605
    112  C        -44.1540   45.8690  -74.7770 C.2   539  TRP539      0.2264
    113  O        -45.3330   46.2190  -74.7920 O.2   539  TRP539     -0.2867
    114  CB       -44.4150   45.3080  -72.3240 C.3   539  TRP539      0.0550
    115  CG       -44.0990   44.2810  -71.2600 C.ar  539  TRP539      0.0003
    116  CD1      -43.3810   43.1190  -71.4270 C.ar  539  TRP539      0.0946
    117  CD2      -44.5660   44.2690  -69.8980 C.ar  539  TRP539      0.0152
    118  NE1      -43.3810   42.3860  -70.2580 N.ar  539  TRP539     -0.2442
    119  CE2      -44.0970   43.0640  -69.3070 C.ar  539  TRP539      0.0810
    120  CE3      -45.3350   45.1500  -69.1240 C.ar  539  TRP539      0.0012
    121  CZ2      -44.3780   42.7220  -67.9710 C.ar  539  TRP539      0.0191
    122  CZ3      -45.6160   44.8050  -67.7910 C.ar  539  TRP539      0.0001
    123  CH2      -45.1350   43.5990  -67.2340 C.ar  539  TRP539      0.0015
    124  N        -37.0310   40.4620  -68.4330 N.3   583  GLU583     -0.1245
    125  CA       -37.5390   39.9430  -69.7050 C.3   583  GLU583      0.1567
    126  C        -36.6650   40.0900  -70.9470 C.2   583  GLU583      0.2260
    127  O        -36.7710   39.2910  -71.8810 O.2   583  GLU583     -0.2867
    128  CB       -38.9100   40.5570  -70.0150 C.3   583  GLU583      0.0388
    129  CG       -39.9030   40.4510  -68.8790 C.3   583  GLU583      0.1160
    130  CD       -39.8400   39.1090  -68.1950 C.2   583  GLU583      0.3649
    131  OE1      -40.0030   38.0860  -68.8970 O.co2 583  GLU583     -0.2457
    132  OE2      -39.6200   39.0780  -66.9630 O.co2 583  GLU583     -0.2457
@<TRIPOS>BOND
     1     1     2    1
     2    50    49    2
     3    47    48    1
     4     2     3    1
     5     2     5    1
     6     3     4    2
     7    53    55   ar
     8    53    52   ar
     9    49    48    1
    10    48    51    1
    11     6     5    1
    12     6     7    1
    13    51    52    1
    14    55    56   ar
    15    52    54   ar
    16   106   105    2
    17     8     7    1
    18     8     9    2
    19    12    13    1
    20    56    54   ar
    21    56    58   ar
    22    54    57   ar
    23    11     9    1
    24   105   104    1
    25     9    10    1
    26   109   103    1
    27   109   108    1
    28   107   108    1
    29   107   104    1
    30    58    60   ar
    31   103   104    1
    32    99    98    2
    33    16    13    1
    34    16    17    1
    35    13    14    1
    36    57    59   ar
    37    95    94    1
    38    14    15    2
    39    94    91    1
    40    98    97    1
    41    60    59   ar
    42    18    17    1
    43    18    19    1
    44   102   100    1
    45    96    97    1
    46    96    92   am
    47    91    92    1
    48    91    90    1
    49    97   100    1
    50    61    62    1
    51    21    22    1
    52    19    20    1
    53    27    26    2
    54    92    93    2
    55   113   112    2
    56   112   111    1
    57    25    26    1
    58    25    22    1
    59   100   101    1
    60    26    28   am
    61    90    81   am
    62    22    23    1
    63    82    81    2
    64    23    24    2
    65    62    63    1
    66    62    65    1
    67    81    80    1
    68   111   110    1
    69   111   114    1
    70    63    67   am
    71    63    64    2
    72    67    68    1
    73    79    80    1
    74    65    66    1
    75    80    83    1
    76    29    30    1
    77    68    69    1
    78    68    71    1
    79    69    70    2
    80   114   115    1
    81    32    31    2
    82   127   126    2
    83    31    30    1
    84    30    33    1
    85    46    44   ar
    86    83    84    1
    87   116   115   ar
    88   116   118   ar
    89    89    87    1
    90   115   117   ar
    91    71    72    1
    92   126   125    1
    93    86    87    2
    94    86    85    1
    95    44    43    1
    96    44    45   ar
    97    43    40    1
    98    35    37   ar
    99    35    34   ar
   100    87    88    1
   101    84    85    1
   102    33    34    1
   103   118   119   ar
   104    72    74   ar
   105    72    73   ar
   106   128   125    1
   107   128   129    1
   108    37    38   ar
   109    34    36   ar
   110   117   119   ar
   111   117   120   ar
   112   125   124    1
   113    74    76   ar
   114    73    75   ar
   115   119   121   ar
   116   120   122   ar
   117    40    39    1
   118    40    41    1
   119    38    36   ar
   120    42    41    2
   121   131   130   ar
   122   129   130    1
   123    76    77   ar
   124    75    77   ar
   125   130   132   ar
   126    77    78    1
   127   121   123   ar
   128   122   123   ar
