@<TRIPOS>MOLECULE
tmp/1u1jA00.pdb
 89 83 0 0 0
SMALL
GASTEIGER

@<TRIPOS>ATOM
      1  N        -48.3640   49.1570  -53.5650 N.3   428  ILE428     -0.1231
      2  CA       -47.5530   49.1800  -54.7730 C.3   428  ILE428      0.1692
      3  C        -48.0630   50.0360  -55.9350 C.2   428  ILE428      0.2593
      4  O        -47.3260   50.2870  -56.8870 O.2   428  ILE428     -0.2718
      5  CB       -47.2870   47.7340  -55.2550 C.3   428  ILE428      0.0266
      6  CG1      -46.5560   46.9650  -54.1500 C.3   428  ILE428      0.0019
      7  CG2      -46.4500   47.7290  -56.5280 C.3   428  ILE428      0.0020
      8  CD1      -45.2950   47.6460  -53.6440 C.3   428  ILE428      0.0001
      9  N        -49.3050   50.5010  -55.8760 N.am  429  GLY429     -0.1942
     10  CA       -49.7710   51.3310  -56.9700 C.3   429  GLY429      0.2014
     11  C        -51.2560   51.4690  -57.2310 C.2   429  GLY429      0.2639
     12  O        -51.8160   52.5460  -57.0540 O.2   429  GLY429     -0.2714
     13  N        -51.8990   50.3850  -57.6520 N.am  430  SER430     -0.1949
     14  CA       -53.3230   50.4230  -57.9740 C.3   430  SER430      0.1924
     15  C        -54.2690   49.7510  -56.9880 C.2   430  SER430      0.2314
     16  O        -53.8510   49.0870  -56.0350 O.2   430  SER430     -0.2863
     17  CB       -53.5470   49.8170  -59.3650 C.3   430  SER430      0.2116
     18  OG       -53.0430   48.4910  -59.4410 O.3   430  SER430     -0.2180
     19  N        -54.3550   54.7460  -59.5400 N.3   468  GLU468     -0.1245
     20  CA       -54.2360   54.6270  -61.0060 C.3   468  GLU468      0.1567
     21  C        -55.5500   54.3620  -61.7360 C.2   468  GLU468      0.2260
     22  O        -55.5920   53.5650  -62.6850 O.2   468  GLU468     -0.2867
     23  CB       -53.2440   53.5230  -61.3980 C.3   468  GLU468      0.0388
     24  CG       -51.8140   53.7360  -60.9380 C.3   468  GLU468      0.1160
     25  CD       -50.9750   52.4920  -61.1290 C.2   468  GLU468      0.3649
     26  OE1      -50.0350   52.2850  -60.3350 O.co2 468  GLU468     -0.2457
     27  OE2      -51.2560   51.7220  -62.0750 O.co2 468  GLU468     -0.2457
     28  N        -42.1840   45.4280  -73.2880 N.3   539  TRP539     -0.1241
     29  CA       -43.5690   45.1080  -73.5890 C.3   539  TRP539      0.1605
     30  C        -44.1540   45.8690  -74.7770 C.2   539  TRP539      0.2264
     31  O        -45.3330   46.2190  -74.7920 O.2   539  TRP539     -0.2867
     32  CB       -44.4150   45.3080  -72.3240 C.3   539  TRP539      0.0550
     33  CG       -44.0990   44.2810  -71.2600 C.ar  539  TRP539      0.0003
     34  CD1      -43.3810   43.1190  -71.4270 C.ar  539  TRP539      0.0946
     35  CD2      -44.5660   44.2690  -69.8980 C.ar  539  TRP539      0.0152
     36  NE1      -43.3810   42.3860  -70.2580 N.ar  539  TRP539     -0.2442
     37  CE2      -44.0970   43.0640  -69.3070 C.ar  539  TRP539      0.0810
     38  CE3      -45.3350   45.1500  -69.1240 C.ar  539  TRP539      0.0012
     39  CZ2      -44.3780   42.7220  -67.9710 C.ar  539  TRP539      0.0191
     40  CZ3      -45.6160   44.8050  -67.7910 C.ar  539  TRP539      0.0001
     41  CH2      -45.1350   43.5990  -67.2340 C.ar  539  TRP539      0.0015
     42  N        -41.7960   51.7450  -61.4400 N.3   577  ASP577     -0.1239
     43  CA       -41.7810   50.2930  -61.5210 C.3   577  ASP577      0.1674
     44  C        -41.1210   49.7330  -62.7770 C.2   577  ASP577      0.2266
     45  O        -41.3480   50.2180  -63.8880 O.2   577  ASP577     -0.2867
     46  CB       -43.2040   49.7090  -61.3790 C.3   577  ASP577      0.1410
     47  CG       -44.3060   50.7620  -61.4840 C.2   577  ASP577      0.3668
     48  OD1      -44.3850   51.4580  -62.5220 O.co2 577  ASP577     -0.2456
     49  OD2      -45.1050   50.8820  -60.5280 O.co2 577  ASP577     -0.2456
     50  N        -41.2380   46.3120  -63.8630 N.3   579  ALA579     -0.1245
     51  CA       -41.8660   45.0050  -63.8100 C.3   579  ALA579      0.1562
     52  C        -41.2130   43.9550  -64.7030 C.2   579  ALA579      0.2260
     53  O        -41.0120   42.8110  -64.2800 O.2   579  ALA579     -0.2867
     54  CB       -43.3500   45.1420  -64.1690 C.3   579  ALA579      0.0290
     55  N        -40.0860   49.2180  -58.1830 N.3   619  HIS619     -0.1241
     56  CA       -40.8300   47.9710  -58.0150 C.3   619  HIS619      0.1621
     57  C        -40.4930   46.9730  -59.1200 C.2   619  HIS619      0.2264
     58  O        -40.4260   47.3300  -60.2930 O.2   619  HIS619     -0.2867
     59  CB       -42.3360   48.2460  -58.0170 C.3   619  HIS619      0.0745
     60  CG       -43.1770   47.0220  -57.8040 C.ar  619  HIS619      0.0817
     61  ND1      -43.0930   46.2470  -56.6670 N.ar  619  HIS619     -0.2268
     62  CD2      -44.1150   46.4350  -58.5890 C.ar  619  HIS619      0.1154
     63  CE1      -43.9400   45.2360  -56.7600 C.ar  619  HIS619      0.1986
     64  NE2      -44.5720   45.3280  -57.9160 N.ar  619  HIS619     -0.2212
     65  N        -41.4080   42.8140  -60.2250 N.3   620  CYS620     -0.1235
     66  CA       -42.1500   41.5820  -59.9820 C.3   620  CYS620      0.1677
     67  C        -41.2710   40.3280  -60.0220 C.2   620  CYS620      0.2270
     68  O        -41.3630   39.5320  -60.9580 O.2   620  CYS620     -0.2867
     69  CB       -43.2780   41.4600  -61.0090 C.3   620  CYS620      0.0956
     70  SG       -44.2280   42.9820  -61.2740 S.3   620  CYS620     -0.0801
     71  N        -47.8430   43.2390  -54.8120 N.3   702  CYS702     -0.1221
     72  CA       -47.9590   44.0070  -56.0500 C.3   702  CYS702      0.1808
     73  C        -49.1910   44.9110  -55.9590 C.2   702  CYS702      0.2601
     74  O        -49.7000   45.1670  -54.8660 O.2   702  CYS702     -0.2717
     75  CB       -48.0860   43.0670  -57.2570 C.3   702  CYS702      0.0970
     76  SG       -47.9450   43.8790  -58.8830 S.3   702  CYS702     -0.0800
     77  N        -49.6590   45.4040  -57.1030 N.am  703  GLY703     -0.1957
     78  CA       -50.8360   46.2540  -57.1090 C.3   703  GLY703      0.1869
     79  C        -52.0540   45.4700  -56.6550 C.2   703  GLY703      0.2309
     80  O        -51.9760   44.2620  -56.4340 O.2   703  GLY703     -0.2863
     81  N        -55.0770   45.7090  -58.3970 N.3   705  LYS705     -0.1245
     82  CA       -55.9740   45.9000  -59.5320 C.3   705  LYS705      0.1561
     83  C        -56.8790   44.6900  -59.7790 C.2   705  LYS705      0.2260
     84  O        -58.0810   44.8430  -60.0170 O.2   705  LYS705     -0.2867
     85  CB       -55.1340   46.1940  -60.7790 C.3   705  LYS705      0.0271
     86  CG       -55.8760   46.8370  -61.9350 C.3   705  LYS705      0.0035
     87  CD       -54.8850   47.2290  -63.0320 C.3   705  LYS705      0.0206
     88  CE       -55.5370   48.0640  -64.1320 C.3   705  LYS705      0.1093
     89  NZ       -54.5370   48.5640  -65.1220 N.3   705  LYS705     -0.1314
@<TRIPOS>BOND
     1    31    30    2
     2    30    29    1
     3    29    28    1
     4    29    32    1
     5    32    33    1
     6    34    33   ar
     7    34    36   ar
     8    33    35   ar
     9    36    37   ar
    10    35    37   ar
    11    35    38   ar
    12    37    39   ar
    13    38    40   ar
    14    39    41   ar
    15    40    41   ar
    16    89    88    1
    17    52    53    2
    18    52    51    1
    19    54    51    1
    20    88    87    1
    21    45    44    2
    22    50    51    1
    23    87    86    1
    24    44    43    1
    25    22    21    2
    26    48    47   ar
    27    27    25   ar
    28    86    85    1
    29    21    20    1
    30    43    42    1
    31    43    46    1
    32    47    46    1
    33    47    49   ar
    34    23    20    1
    35    23    24    1
    36    70    69    1
    37    25    24    1
    38    25    26   ar
    39    69    66    1
    40    20    19    1
    41    68    67    2
    42    85    82    1
    43    58    57    2
    44    65    66    1
    45    67    66    1
    46    84    83    2
    47    83    82    1
    48    82    81    1
    49    18    17    1
    50    17    14    1
    51    57    56    1
    52    76    75    1
    53    62    64   ar
    54    62    60   ar
    55    55    56    1
    56    59    56    1
    57    59    60    1
    58    14    13    1
    59    14    15    1
    60    64    63   ar
    61    60    61   ar
    62    13    11   am
    63    75    72    1
    64    11    12    2
    65    11    10    1
    66    78    77    1
    67    78    79    1
    68    77    73   am
    69    15    16    2
    70    10     9    1
    71     4     3    2
    72    63    61   ar
    73    79    80    2
    74     7     5    1
    75    72    73    1
    76    72    71    1
    77    73    74    2
    78     3     9   am
    79     3     2    1
    80     5     2    1
    81     5     6    1
    82     2     1    1
    83     6     8    1
