@<TRIPOS>MOLECULE
tmp/1u1xB00.pdb
 123 118 0 0 0
SMALL
GASTEIGER

@<TRIPOS>ATOM
      1  N         15.0620   16.0590   10.2580 N.3    45  SER45      -0.1202
      2  CA        14.2500   15.0930    9.5390 C.3    45  SER45       0.2020
      3  C         14.5570   13.6620    9.9540 C.2    45  SER45       0.2618
      4  O         13.6630   12.8270    9.9250 O.2    45  SER45      -0.2717
      5  CB        14.5160   15.2160    8.0030 C.3    45  SER45       0.2103
      6  OG        14.0350   16.4880    7.5620 O.3    45  SER45      -0.2182
      7  N         15.8020   13.3660   10.2750 N.am   46  GLU46      -0.1979
      8  CA        16.1870   12.1250   10.9370 C.3    46  GLU46       0.1602
      9  C         17.3790   12.3090   11.8950 C.2    46  GLU46       0.2287
     10  O         18.2290   13.2170   11.7470 O.2    46  GLU46      -0.2864
     11  CB        16.5730   11.0230    9.9370 C.3    46  GLU46       0.0415
     12  CG        15.3990   10.2780    9.3290 C.3    46  GLU46       0.1163
     13  CD        14.9910   10.8690    7.9830 C.2    46  GLU46       0.3649
     14  OE1       15.6780   11.8340    7.4800 O.co2  46  GLU46      -0.2457
     15  OE2       13.9240   10.5090    7.5290 O.co2  46  GLU46      -0.2457
     16  N         12.4550    4.1440   10.4260 N.3    70  LEU70      -0.1245
     17  CA        12.5930    3.7830    8.9910 C.3    70  LEU70       0.1561
     18  C         13.6400    2.7170    8.8480 C.2    70  LEU70       0.2260
     19  O         14.7140    2.7420    9.4990 O.2    70  LEU70      -0.2867
     20  CB        13.0290    4.9620    8.0780 C.3    70  LEU70       0.0270
     21  CG        12.0480    6.1130    7.9500 C.3    70  LEU70       0.0019
     22  CD1       12.6470    7.2170    7.1320 C.3    70  LEU70       0.0001
     23  CD2       10.7680    5.7240    7.3210 C.3    70  LEU70       0.0001
     24  N         17.1620    4.8440    4.7060 N.3    73  ALA73      -0.1231
     25  CA        16.9890    6.2350    4.2900 C.3    73  ALA73       0.1694
     26  C         18.2980    6.7630    3.8530 C.2    73  ALA73       0.2593
     27  O         19.3590    6.3530    4.3610 O.2    73  ALA73      -0.2718
     28  CB        16.4090    7.0960    5.4130 C.3    73  ALA73       0.0304
     29  N         18.2820    7.6520    2.8590 N.am   74  GLY74      -0.1942
     30  CA        19.5220    7.9760    2.1970 C.3    74  GLY74       0.2014
     31  C         20.3210    9.1240    2.8050 C.2    74  GLY74       0.2639
     32  O         21.4660    8.9600    2.9860 O.2    74  GLY74      -0.2714
     33  N         19.7260   10.2840    3.0880 N.am   75  HIS75      -0.1959
     34  CA        20.4810   11.4030    3.7000 C.3    75  HIS75       0.1772
     35  C         20.9800   10.9700    5.0800 C.2    75  HIS75       0.2462
     36  O         22.0780   11.2480    5.4300 O.2    75  HIS75      -0.2730
     37  CB        19.7130   12.7370    3.6700 C.3    75  HIS75       0.0785
     38  CG        19.2800   13.2690    5.0150 C.ar   75  HIS75       0.0821
     39  ND1       18.1020   12.9160    5.5990 N.ar   75  HIS75      -0.2267
     40  CD2       19.8750   14.1380    5.8540 C.ar   75  HIS75       0.1154
     41  CE1       17.9530   13.5900    6.7290 C.ar   75  HIS75       0.1986
     42  NE2       19.0370   14.3110    6.9300 N.ar   75  HIS75      -0.2212
     43  N         20.1650   10.2790    5.8800 N.am   76  PRO76      -0.2727
     44  CA        20.6740    9.8450    7.2230 C.3    76  PRO76       0.1402
     45  C         21.8350    8.9130    7.1500 C.2    76  PRO76       0.2269
     46  O         22.8330    9.0640    7.9360 O.2    76  PRO76      -0.2865
     47  CB        19.4850    9.2140    7.8630 C.3    76  PRO76       0.0296
     48  CG        18.2900    9.7950    7.1090 C.3    76  PRO76       0.0237
     49  CD        18.7680    9.9250    5.6910 C.3    76  PRO76       0.0939
     50  N         11.3910    2.8270    3.0420 N.3   154  PRO154     -0.2116
     51  CA        10.3410    3.8020    3.0150 C.3   154  PRO154      0.1372
     52  C          9.6670    3.7130    1.6520 C.2   154  PRO154      0.2244
     53  O         10.0990    2.9000    0.8580 O.2   154  PRO154     -0.2868
     54  CB        11.1110    5.1250    3.0410 C.3   154  PRO154      0.0268
     55  CG        12.3440    4.8670    2.4280 C.3   154  PRO154      0.0207
     56  CD        12.7090    3.4490    2.7990 C.3   154  PRO154      0.0892
     57  N          8.1550    6.1950   -1.6900 N.3   156  HIS156     -0.1241
     58  CA         8.2220    7.4870   -2.3400 C.3   156  HIS156      0.1621
     59  C          7.3070    7.5230   -3.5590 C.2   156  HIS156      0.2264
     60  O          7.5110    6.7340   -4.4060 O.2   156  HIS156     -0.2867
     61  CB         9.6600    7.7660   -2.7920 C.3   156  HIS156      0.0745
     62  CG        10.5990    7.9290   -1.6560 C.ar  156  HIS156      0.0817
     63  ND1       10.3660    8.8480   -0.6800 N.ar  156  HIS156     -0.2268
     64  CD2       11.6690    7.2230   -1.2640 C.ar  156  HIS156      0.1154
     65  CE1       11.2800    8.7440    0.2520 C.ar  156  HIS156      0.1986
     66  NE2       12.0780    7.7490   -0.0500 N.ar  156  HIS156     -0.2212
     67  N         10.0970   17.6730   -1.4350 N.3   199  MET199     -0.1245
     68  CA         9.4560   16.5320   -0.7570 C.3   199  MET199      0.1570
     69  C          8.6060   17.0060    0.4590 C.2   199  MET199      0.2261
     70  O          9.0340   17.8670    1.2060 O.2   199  MET199     -0.2867
     71  CB        10.5020   15.5020   -0.3510 C.3   199  MET199      0.0387
     72  CG         9.8680   14.2510    0.3110 C.3   199  MET199      0.0595
     73  SD         9.4700   14.4030    2.1070 S.3   199  MET199     -0.1393
     74  CE        10.5910   13.2400    2.7610 C.3   199  MET199      0.0692
     75  N          6.1490   10.9890    7.6670 N.3   204  TYR204     -0.1241
     76  CA         7.5390   10.8680    8.1590 C.3   204  TYR204      0.1605
     77  C          7.9460   12.0550    9.0460 C.2   204  TYR204      0.2264
     78  O          9.1380   12.3340    9.2320 O.2   204  TYR204     -0.2867
     79  CB         8.4960   10.6450    6.9920 C.3   204  TYR204      0.0534
     80  CG         8.3040    9.3100    6.2490 C.ar  204  TYR204     -0.0201
     81  CD1        7.7730    8.1660    6.8820 C.ar  204  TYR204     -0.0009
     82  CD2        8.5820    9.1990    4.8980 C.ar  204  TYR204     -0.0009
     83  CE1        7.5850    6.9980    6.1920 C.ar  204  TYR204      0.0417
     84  CE2        8.4390    8.0260    4.2410 C.ar  204  TYR204      0.0417
     85  CZ         7.9110    6.9390    4.8390 C.ar  204  TYR204      0.1957
     86  OH         7.7420    5.7800    4.1200 O.3   204  TYR204     -0.2866
     87  N          7.5760   15.4440    8.5750 N.3   206  VAL206     -0.1245
     88  CA         8.2080   16.6340    7.9820 C.3   206  VAL206      0.1561
     89  C          7.2070   17.3610    7.0430 C.2   206  VAL206      0.2260
     90  O          6.5650   16.7210    6.2240 O.2   206  VAL206     -0.2867
     91  CB         9.5830   16.2660    7.3780 C.3   206  VAL206      0.0252
     92  CG1        9.5070   15.2920    6.3070 C.3   206  VAL206      0.0019
     93  CG2       10.3740   17.5090    6.9420 C.3   206  VAL206      0.0019
     94  N         10.9540   18.2360    3.4760 N.3   209  ASP209     -0.1239
     95  CA        12.3520   17.8280    3.6790 C.3   209  ASP209      0.1674
     96  C         13.2930   18.4270    2.6910 C.2   209  ASP209      0.2266
     97  O         12.9020   18.5530    1.5010 O.2   209  ASP209     -0.2867
     98  CB        12.3990   16.3510    3.5880 C.3   209  ASP209      0.1410
     99  CG        13.7190   15.8050    3.8600 C.2   209  ASP209      0.3668
    100  OD1       14.2220   16.0080    4.9910 O.co2 209  ASP209     -0.2456
    101  OD2       14.3210   15.0740    3.0390 O.co2 209  ASP209     -0.2456
    102  N         16.4680   17.0980    1.6200 N.3   211  ALA211     -0.1231
    103  CA        17.2160   16.2260    0.7390 C.3   211  ALA211      0.1694
    104  C         16.8090   14.7570    1.0810 C.2   211  ALA211      0.2593
    105  O         17.2080   14.2060    2.1050 O.2   211  ALA211     -0.2718
    106  CB        18.7180   16.4000    0.8720 C.3   211  ALA211      0.0304
    107  N         16.0390   14.1570    0.2020 N.am  212  THR212     -0.1939
    108  CA        15.3810   12.8750    0.4870 C.3   212  THR212      0.2028
    109  C         16.1770   11.8590   -0.2900 C.2   212  THR212      0.2643
    110  O         15.8640   11.5420   -1.4590 O.2   212  THR212     -0.2714
    111  CB        13.9660   12.8880    0.0810 C.3   212  THR212      0.1808
    112  OG1       13.2170   13.9880    0.6290 O.3   212  THR212     -0.2208
    113  CG2       13.2110   11.6020    0.5440 C.3   212  THR212      0.0379
    114  N         17.2140   11.3340    0.3450 N.am  213  GLY213     -0.1939
    115  CA        18.2450   10.5580   -0.3010 C.3   213  GLY213      0.2014
    116  C         17.7530    9.2340   -0.8840 C.2   213  GLY213      0.2639
    117  O         18.2090    8.7780   -1.9760 O.2   213  GLY213     -0.2714
    118  N         16.7910    8.6550   -0.1790 N.am  214  SER214     -0.1949
    119  CA        16.1590    7.4230   -0.6030 C.3   214  SER214      0.1924
    120  C         15.1580    7.6220   -1.7770 C.2   214  SER214      0.2314
    121  O         14.7250    6.6320   -2.3360 O.2   214  SER214     -0.2863
    122  CB        15.4950    6.6460    0.5330 C.3   214  SER214      0.2116
    123  OG        14.4400    7.3410    1.1520 O.3   214  SER214     -0.2180
@<TRIPOS>BOND
     1    60    59    2
     2    59    58    1
     3    61    58    1
     4    61    62    1
     5    58    57    1
     6   121   120    2
     7   117   116    2
     8   120   119    1
     9    62    64   ar
    10    62    63   ar
    11   110   109    2
    12    67    68    1
    13    64    66   ar
    14   116   115    1
    15   116   118   am
    16    68    71    1
    17    68    69    1
    18    63    65   ar
    19   119   118    1
    20   119   122    1
    21    71    72    1
    22   115   114    1
    23   109   114   am
    24   109   108    1
    25    66    65   ar
    26   111   108    1
    27   111   113    1
    28   111   112    1
    29   107   108    1
    30   107   104   am
    31    72    73    1
    32    69    70    2
    33   122   123    1
    34   103   106    1
    35   103   104    1
    36   103   102    1
    37    53    52    2
    38   104   105    2
    39    97    96    2
    40    52    51    1
    41    73    74    1
    42    30    31    1
    43    30    29    1
    44    55    56    1
    45    55    54    1
    46    96    95    1
    47    56    50    1
    48    31    32    2
    49    31    33   am
    50    29    26   am
    51    51    54    1
    52    51    50    1
    53   101    99   ar
    54    33    34    1
    55    94    95    1
    56    98    95    1
    57    98    99    1
    58    37    34    1
    59    37    38    1
    60    34    35    1
    61    26    25    1
    62    26    27    2
    63    99   100   ar
    64    86    85    1
    65    84    85   ar
    66    84    82   ar
    67    25    24    1
    68    25    28    1
    69    85    83   ar
    70    82    80   ar
    71    38    39   ar
    72    38    40   ar
    73    35    36    2
    74    35    43   am
    75    39    41   ar
    76    49    43    1
    77    49    48    1
    78    40    42   ar
    79    43    44    1
    80    83    81   ar
    81    90    89    2
    82    80    81   ar
    83    80    79    1
    84    92    91    1
    85    41    42   ar
    86    93    91    1
    87    79    76    1
    88    89    88    1
    89    48    47    1
    90    22    21    1
    91    45    44    1
    92    45    46    2
    93    44    47    1
    94    23    21    1
    95    91    88    1
    96    14    13   ar
    97    15    13   ar
    98     6     5    1
    99    75    76    1
   100    21    20    1
   101    88    87    1
   102    13    12    1
   103     5     2    1
   104    20    17    1
   105    76    77    1
   106    18    17    1
   107    18    19    2
   108    17    16    1
   109    77    78    2
   110    12    11    1
   111     2     3    1
   112     2     1    1
   113     4     3    2
   114    11     8    1
   115     3     7   am
   116     7     8    1
   117     8     9    1
   118    10     9    2
