@<TRIPOS>MOLECULE
tmp/1u21A00.pdb
 86 78 0 0 0
SMALL
GASTEIGER

@<TRIPOS>ATOM
      1  N         18.7090   31.6880   31.4600 N.3     4  MET4       -0.1245
      2  CA        20.0080   32.3110   31.3400 C.3     4  MET4        0.1570
      3  C         20.4880   32.6340   32.7360 C.2     4  MET4        0.2261
      4  O         19.6850   32.9960   33.5760 O.2     4  MET4       -0.2867
      5  CB        19.9380   33.6120   30.5550 C.3     4  MET4        0.0387
      6  CG        21.3220   34.2020   30.2390 C.3     4  MET4        0.0595
      7  SD        21.7720   35.5180   31.4090 S.3     4  MET4       -0.1393
      8  CE        20.9300   36.9180   30.5210 C.3     4  MET4        0.0692
      9  N         23.3860   34.8490   34.8420 N.3     6  LYS6       -0.1245
     10  CA        24.2680   36.0140   34.7380 C.3     6  LYS6        0.1561
     11  C         24.9630   36.1740   36.0850 C.2     6  LYS6        0.2260
     12  O         24.3350   36.1790   37.1380 O.2     6  LYS6       -0.2867
     13  CB        23.4750   37.2860   34.3860 C.3     6  LYS6        0.0271
     14  CG        24.3300   38.5690   34.4630 C.3     6  LYS6        0.0035
     15  CD        23.8730   39.7240   33.5720 C.3     6  LYS6        0.0206
     16  CE        24.9540   40.8570   33.5060 C.3     6  LYS6        0.1093
     17  NZ        25.8810   40.7250   32.3580 N.3     6  LYS6       -0.1314
     18  N         27.8280   38.4570   38.3330 N.3     8  LEU8       -0.1245
     19  CA        28.6550   39.6460   38.5120 C.3     8  LEU8        0.1561
     20  C         29.5420   39.5650   39.7590 C.2     8  LEU8        0.2260
     21  O         29.1770   38.9130   40.7700 O.2     8  LEU8       -0.2867
     22  CB        27.7700   40.8530   38.6320 C.3     8  LEU8        0.0270
     23  CG        26.9560   41.2430   37.4220 C.3     8  LEU8        0.0019
     24  CD1       26.0400   42.3870   37.7740 C.3     8  LEU8        0.0001
     25  CD2       27.8880   41.6110   36.3200 C.3     8  LEU8        0.0001
     26  N         27.7540   35.7570   31.3760 N.3    45  GLU45      -0.1245
     27  CA        26.4560   35.1570   31.0760 C.3    45  GLU45       0.1567
     28  C         26.6620   33.7540   30.5600 C.2    45  GLU45       0.2260
     29  O         27.7280   33.4110   30.0160 O.2    45  GLU45      -0.2867
     30  CB        25.7030   35.9830   30.0530 C.3    45  GLU45       0.0388
     31  CG        25.5470   37.4200   30.5210 C.3    45  GLU45       0.1160
     32  CD        24.6360   38.2640   29.6650 C.2    45  GLU45       0.3649
     33  OE1       24.2520   37.8470   28.5430 O.co2  45  GLU45      -0.2457
     34  OE2       24.3110   39.3780   30.1400 O.co2  45  GLU45      -0.2457
     35  N         15.8420   34.7400   33.9090 N.3    97  THR97      -0.1218
     36  CA        17.2170   35.1650   34.0470 C.3    97  THR97       0.1862
     37  C         17.5220   35.0330   35.5050 C.2    97  THR97       0.2287
     38  O         16.8520   35.6390   36.3310 O.2    97  THR97      -0.2866
     39  CB        17.3940   36.6180   33.5920 C.3    97  THR97       0.1770
     40  OG1       17.1790   36.6960   32.1870 O.3    97  THR97      -0.2211
     41  CG2       18.7870   37.0530   33.7530 C.3    97  THR97       0.0375
     42  N         20.1930   35.9060   38.0160 N.3    99  ALA99      -0.1231
     43  CA        21.3500   36.7530   38.2420 C.3    99  ALA99       0.1694
     44  C         21.9310   36.5000   39.6130 C.2    99  ALA99       0.2592
     45  O         21.1970   36.2560   40.5820 O.2    99  ALA99      -0.2718
     46  CB        20.9680   38.1970   38.1210 C.3    99  ALA99       0.0304
     47  N         23.2540   36.5270   39.7130 N.am  100  ALA100     -0.1966
     48  CA        23.8930   36.4380   41.0050 C.3   100  ALA100      0.1728
     49  C         25.0000   37.4950   41.0810 C.2   100  ALA100      0.2616
     50  O         25.7400   37.6960   40.1280 O.2   100  ALA100     -0.2715
     51  CB        24.4240   35.0740   41.2030 C.3   100  ALA100      0.0334
     52  N         25.0190   38.2370   42.1790 N.am  101  LEU101     -0.1977
     53  CA        26.0280   39.2230   42.4780 C.3   101  LEU101      0.1596
     54  C         26.9250   38.6620   43.5950 C.2   101  LEU101      0.2287
     55  O         26.4630   38.3970   44.6830 O.2   101  LEU101     -0.2864
     56  CB        25.3470   40.5130   42.9080 C.3   101  LEU101      0.0297
     57  CG        26.2570   41.6760   43.2940 C.3   101  LEU101      0.0022
     58  CD1       27.0500   42.1240   42.0890 C.3   101  LEU101      0.0001
     59  CD2       25.4660   42.8270   43.8250 C.3   101  LEU101      0.0001
     60  N         23.9910   37.8680   46.4100 N.3   108  SER108     -0.1202
     61  CA        22.5790   38.0680   46.1870 C.3   108  SER108      0.2020
     62  C         22.2100   37.4060   44.8860 C.2   108  SER108      0.2619
     63  O         23.0270   37.2290   43.9710 O.2   108  SER108     -0.2717
     64  CB        22.2350   39.5570   46.2370 C.3   108  SER108      0.2103
     65  OG        22.7530   40.2380   45.1070 O.3   108  SER108     -0.2182
     66  N         20.9650   37.0060   44.8120 N.am  109  THR109     -0.1938
     67  CA        20.4580   36.4110   43.6220 C.3   109  THR109      0.2028
     68  C         19.0640   36.9140   43.3820 C.2   109  THR109      0.2642
     69  O         18.2640   37.1040   44.3080 O.2   109  THR109     -0.2714
     70  CB        20.5370   34.8910   43.6580 C.3   109  THR109      0.1808
     71  OG1       20.1450   34.3800   42.3890 O.3   109  THR109     -0.2208
     72  CG2       19.5910   34.2240   44.6950 C.3   109  THR109      0.0379
     73  N         18.8050   37.1800   42.1150 N.am  110  THR110     -0.1950
     74  CA        17.5680   37.7650   41.7000 C.3   110  THR110      0.1897
     75  C         17.1070   37.0510   40.4650 C.2   110  THR110      0.2313
     76  O         17.8900   36.4860   39.7330 O.2   110  THR110     -0.2863
     77  CB        17.7120   39.2680   41.4600 C.3   110  THR110      0.1794
     78  OG1       18.1310   39.9100   42.6700 O.3   110  THR110     -0.2208
     79  CG2       16.3840   39.8670   41.0210 C.3   110  THR110      0.0378
     80  N         14.6700   37.4910   36.9970 N.3   112  VAL112     -0.1245
     81  CA        13.8570   38.3230   36.1590 C.3   112  VAL112      0.1561
     82  C         13.0980   37.3570   35.2950 C.2   112  VAL112      0.2260
     83  O         13.6970   36.5690   34.5840 O.2   112  VAL112     -0.2867
     84  CB        14.7550   39.2840   35.3450 C.3   112  VAL112      0.0252
     85  CG1       13.9640   40.1410   34.4420 C.3   112  VAL112      0.0019
     86  CG2       15.6310   40.0780   36.3390 C.3   112  VAL112      0.0019
@<TRIPOS>BOND
     1    33    32   ar
     2    32    34   ar
     3    32    31    1
     4    29    28    2
     5    30    31    1
     6    30    27    1
     7     6     5    1
     8     6     7    1
     9     8     7    1
    10     5     2    1
    11    28    27    1
    12    27    26    1
    13     2     1    1
    14     2     3    1
    15    40    39    1
    16    17    16    1
    17     3     4    2
    18    16    15    1
    19    15    14    1
    20    39    41    1
    21    39    36    1
    22    35    36    1
    23    36    37    1
    24    13    14    1
    25    13    10    1
    26    85    84    1
    27    83    82    2
    28    10     9    1
    29    10    11    1
    30    82    81    1
    31    84    81    1
    32    84    86    1
    33    37    38    2
    34    11    12    2
    35    81    80    1
    36    25    23    1
    37    23    24    1
    38    23    22    1
    39    42    43    1
    40    46    43    1
    41    43    44    1
    42    18    19    1
    43    19    22    1
    44    19    20    1
    45    44    47   am
    46    44    45    2
    47    47    48    1
    48    76    75    2
    49    20    21    2
    50    50    49    2
    51    75    74    1
    52    48    49    1
    53    48    51    1
    54    79    77    1
    55    49    52   am
    56    77    74    1
    57    77    78    1
    58    74    73    1
    59    58    57    1
    60    73    68   am
    61    52    53    1
    62    71    70    1
    63    53    56    1
    64    53    54    1
    65    56    57    1
    66    57    59    1
    67    68    67    1
    68    68    69    2
    69    54    55    2
    70    67    70    1
    71    67    66    1
    72    70    72    1
    73    63    62    2
    74    66    62   am
    75    62    61    1
    76    65    64    1
    77    61    64    1
    78    61    60    1
