@<TRIPOS>MOLECULE
tmp/1u22A00.pdb
 105 97 0 0 0
SMALL
GASTEIGER

@<TRIPOS>ATOM
      1  N        -48.6250   49.4400  -53.8760 N.3   428  ILE428     -0.1231
      2  CA       -47.7720   49.2990  -55.0420 C.3   428  ILE428      0.1696
      3  C        -48.0670   50.2150  -56.2260 C.2   428  ILE428      0.2632
      4  O        -47.1450   50.6810  -56.8940 O.2   428  ILE428     -0.2714
      5  CB       -47.7740   47.8500  -55.5190 C.3   428  ILE428      0.0266
      6  CG1      -47.3800   46.9260  -54.3550 C.3   428  ILE428      0.0019
      7  CG2      -46.8440   47.7040  -56.7110 C.3   428  ILE428      0.0020
      8  CD1      -46.0400   47.2390  -53.7180 C.3   428  ILE428      0.0001
      9  N        -49.3380   50.4760  -56.5000 N.am  429  GLY429     -0.1718
     10  CA       -49.6460   51.3580  -57.6090 C.2   429  GLY429      0.1480
     11  C        -51.0940   51.3800  -58.0280 C.2   429  GLY429      0.2821
     12  O        -51.7420   52.4260  -58.0310 O.2   429  GLY429     -0.2669
     13  N        -51.5980   50.2080  -58.3860 N.am  430  SER430     -0.1915
     14  CA       -52.9750   50.0640  -58.8350 C.3   430  SER430      0.1927
     15  C        -53.9530   49.7080  -57.7160 C.2   430  SER430      0.2314
     16  O        -53.5540   49.2440  -56.6380 O.2   430  SER430     -0.2863
     17  CB       -53.0540   49.0100  -59.9590 C.3   430  SER430      0.2116
     18  OG       -52.5250   47.7470  -59.5620 O.3   430  SER430     -0.2180
     19  N        -53.8180   54.4840  -59.7490 N.3   468  GLU468     -0.1245
     20  CA       -53.8160   54.4770  -61.2320 C.3   468  GLU468      0.1567
     21  C        -55.1690   54.3570  -61.9440 C.2   468  GLU468      0.2260
     22  O        -55.2870   53.6080  -62.9300 O.2   468  GLU468     -0.2867
     23  CB       -52.9500   53.3360  -61.7790 C.3   468  GLU468      0.0388
     24  CG       -51.4590   53.4410  -61.6210 C.3   468  GLU468      0.1160
     25  CD       -50.8040   52.1110  -61.9470 C.2   468  GLU468      0.3649
     26  OE1      -51.0050   51.6020  -63.0780 O.co2 468  GLU468     -0.2457
     27  OE2      -50.1050   51.5710  -61.0630 O.co2 468  GLU468     -0.2457
     28  N        -43.6000   54.1190  -64.9900 N.3   531  THR531     -0.1218
     29  CA       -43.2500   52.8060  -65.5210 C.3   531  THR531      0.1862
     30  C        -41.8230   52.9010  -66.0620 C.2   531  THR531      0.2287
     31  O        -41.5550   53.6560  -67.0040 O.2   531  THR531     -0.2866
     32  CB       -44.2000   52.3810  -66.6670 C.3   531  THR531      0.1770
     33  OG1      -45.5010   52.1170  -66.1340 O.3   531  THR531     -0.2211
     34  CG2      -43.6850   51.1250  -67.3690 C.3   531  THR531      0.0375
     35  N        -42.0740   45.0200  -73.0470 N.3   539  TRP539     -0.1241
     36  CA       -43.4740   44.8110  -73.3900 C.3   539  TRP539      0.1605
     37  C        -43.9450   45.7560  -74.4820 C.2   539  TRP539      0.2264
     38  O        -44.8010   46.6080  -74.2520 O.2   539  TRP539     -0.2867
     39  CB       -44.3420   44.9920  -72.1540 C.3   539  TRP539      0.0550
     40  CG       -44.0840   43.9640  -71.1230 C.ar  539  TRP539      0.0003
     41  CD1      -43.4900   42.7550  -71.3150 C.ar  539  TRP539      0.0946
     42  CD2      -44.4980   44.0000  -69.7470 C.ar  539  TRP539      0.0152
     43  NE1      -43.5130   42.0280  -70.1500 N.ar  539  TRP539     -0.2442
     44  CE2      -44.1270   42.7640  -69.1710 C.ar  539  TRP539      0.0810
     45  CE3      -45.1530   44.9510  -68.9490 C.ar  539  TRP539      0.0012
     46  CZ2      -44.3880   42.4490  -67.8260 C.ar  539  TRP539      0.0191
     47  CZ3      -45.4180   44.6350  -67.6040 C.ar  539  TRP539      0.0001
     48  CH2      -45.0350   43.3940  -67.0630 C.ar  539  TRP539      0.0015
     49  N        -42.2280   56.3690  -56.8890 N.3   575  GLN575     -0.1245
     50  CA       -41.9290   54.9840  -57.2310 C.3   575  GLN575      0.1566
     51  C        -41.8980   54.6980  -58.7410 C.2   575  GLN575      0.2260
     52  O        -42.8830   54.8870  -59.4550 O.2   575  GLN575     -0.2867
     53  CB       -42.9390   54.0590  -56.5510 C.3   575  GLN575      0.0367
     54  CG       -43.4530   52.9470  -57.4410 C.3   575  GLN575      0.0905
     55  CD       -44.4000   52.0160  -56.7190 C.2   575  GLN575      0.2608
     56  OE1      -45.3730   52.4500  -56.0940 O.2   575  GLN575     -0.2717
     57  NE2      -44.1220   50.7200  -56.8010 N.am  575  GLN575     -0.0878
     58  N        -41.3230   51.7430  -61.4790 N.3   577  ASP577     -0.1239
     59  CA       -41.3650   50.2850  -61.4750 C.3   577  ASP577      0.1674
     60  C        -40.8320   49.5930  -62.7260 C.2   577  ASP577      0.2266
     61  O        -41.0410   50.0440  -63.8490 O.2   577  ASP577     -0.2867
     62  CB       -42.7920   49.7900  -61.1530 C.3   577  ASP577      0.1410
     63  CG       -43.8580   50.4000  -62.0590 C.2   577  ASP577      0.3668
     64  OD1      -45.0650   50.2290  -61.7570 O.co2 577  ASP577     -0.2456
     65  OD2      -43.4940   51.0420  -63.0700 O.co2 577  ASP577     -0.2456
     66  N        -41.2150   45.9980  -63.7770 N.3   579  ALA579     -0.1245
     67  CA       -41.8340   44.6980  -63.7080 C.3   579  ALA579      0.1562
     68  C        -41.1200   43.7190  -64.6210 C.2   579  ALA579      0.2260
     69  O        -40.8680   42.5770  -64.2250 O.2   579  ALA579     -0.2867
     70  CB       -43.2960   44.8090  -64.1040 C.3   579  ALA579      0.0290
     71  N        -39.9470   49.2990  -58.3840 N.3   619  HIS619     -0.1241
     72  CA       -40.7790   48.1270  -58.1760 C.3   619  HIS619      0.1621
     73  C        -40.6780   47.0250  -59.2410 C.2   619  HIS619      0.2264
     74  O        -41.1210   47.2030  -60.3770 O.2   619  HIS619     -0.2867
     75  CB       -42.2390   48.5580  -58.0170 C.3   619  HIS619      0.0745
     76  CG       -43.1250   47.4530  -57.5500 C.ar  619  HIS619      0.0817
     77  ND1      -42.9350   46.8170  -56.3410 N.ar  619  HIS619     -0.2268
     78  CD2      -44.1360   46.7990  -58.1660 C.ar  619  HIS619      0.1154
     79  CE1      -43.7870   45.8150  -56.2370 C.ar  619  HIS619      0.1986
     80  NE2      -44.5260   45.7820  -57.3310 N.ar  619  HIS619     -0.2212
     81  N        -41.3250   42.8080  -60.2580 N.3   620  CYS620     -0.1235
     82  CA       -42.1450   41.6390  -59.9440 C.3   620  CYS620      0.1677
     83  C        -41.3700   40.3250  -59.9380 C.2   620  CYS620      0.2270
     84  O        -41.6020   39.4560  -60.7800 O.2   620  CYS620     -0.2867
     85  CB       -43.2930   41.5460  -60.9420 C.3   620  CYS620      0.0956
     86  SG       -44.0220   43.1480  -61.3210 S.3   620  CYS620     -0.0801
     87  N        -47.8850   43.3750  -55.0470 N.3   702  CYS702     -0.1221
     88  CA       -47.9870   44.1170  -56.3030 C.3   702  CYS702      0.1808
     89  C        -49.3360   44.8500  -56.3170 C.2   702  CYS702      0.2601
     90  O        -50.1400   44.6820  -55.3990 O.2   702  CYS702     -0.2717
     91  CB       -47.8870   43.1760  -57.5110 C.3   702  CYS702      0.0970
     92  SG       -47.9160   44.0180  -59.1290 S.3   702  CYS702     -0.0800
     93  N        -49.5740   45.6640  -57.3440 N.am  703  GLY703     -0.1957
     94  CA       -50.8230   46.4010  -57.4430 C.3   703  GLY703      0.1869
     95  C        -52.0510   45.5980  -57.0340 C.2   703  GLY703      0.2309
     96  O        -52.1140   44.3810  -57.2410 O.2   703  GLY703     -0.2863
     97  N        -54.9470   45.9540  -58.3110 N.3   705  LYS705     -0.1245
     98  CA       -55.8750   46.0450  -59.4320 C.3   705  LYS705      0.1561
     99  C        -56.7900   44.8580  -59.6770 C.2   705  LYS705      0.2260
    100  O        -57.9420   45.0420  -60.0800 O.2   705  LYS705     -0.2867
    101  CB       -55.1060   46.3510  -60.7180 C.3   705  LYS705      0.0271
    102  CG       -56.0050   46.5390  -61.9270 C.3   705  LYS705      0.0035
    103  CD       -55.2610   47.1830  -63.0770 C.3   705  LYS705      0.0206
    104  CE       -56.2360   47.6340  -64.1520 C.3   705  LYS705      0.1093
    105  NZ       -55.6740   48.7190  -65.0080 N.3   705  LYS705     -0.1314
@<TRIPOS>BOND
     1    37    38    2
     2    37    36    1
     3    36    35    1
     4    36    39    1
     5    39    40    1
     6    41    40   ar
     7    41    43   ar
     8    40    42   ar
     9    43    44   ar
    10    42    44   ar
    11    42    45   ar
    12    44    46   ar
    13    45    47   ar
    14    46    48   ar
    15    47    48   ar
    16    34    32    1
    17    31    30    2
    18    32    33    1
    19    32    29    1
    20    30    29    1
    21    29    28    1
    22   105   104    1
    23    68    69    2
    24    68    67    1
    25   104   103    1
    26    70    67    1
    27    61    60    2
    28    66    67    1
    29    26    25   ar
    30   103   102    1
    31    65    63   ar
    32    22    21    2
    33    60    59    1
    34    63    64   ar
    35    63    62    1
    36    25    24    1
    37    25    27   ar
    38    21    20    1
    39   102   101    1
    40    23    24    1
    41    23    20    1
    42    58    59    1
    43    59    62    1
    44    86    85    1
    45    20    19    1
    46    85    82    1
    47    84    83    2
    48   101    98    1
    49    74    73    2
    50    81    82    1
    51   100    99    2
    52    17    18    1
    53    17    14    1
    54    82    83    1
    55    99    98    1
    56    52    51    2
    57    98    97    1
    58    73    72    1
    59    92    91    1
    60    14    13    1
    61    14    15    1
    62    51    50    1
    63    13    11   am
    64    71    72    1
    65    72    75    1
    66    78    76   ar
    67    78    80   ar
    68    12    11    2
    69    11    10    1
    70    75    76    1
    71    15    16    2
    72    10     9    2
    73    76    77   ar
    74    91    88    1
    75    94    93    1
    76    94    95    1
    77    54    55    1
    78    54    53    1
    79    93    89   am
    80    80    79   ar
    81    96    95    2
    82    50    49    1
    83    50    53    1
    84     4     3    2
    85    57    55   am
    86    55    56    2
    87     7     5    1
    88     9     3    1
    89    77    79   ar
    90    89    88    1
    91    89    90    2
    92    88    87    1
    93     3     2    1
    94     5     2    1
    95     5     6    1
    96     2     1    1
    97     6     8    1
