@<TRIPOS>MOLECULE
tmp/1u25C00.pdb
 124 114 0 0 0
SMALL
GASTEIGER

@<TRIPOS>ATOM
      1  N         54.2200   30.7840   11.9570 N.3    32  ARG32      -0.1245
      2  CA        53.2400   29.7220   12.1620 C.3    32  ARG32       0.1563
      3  C         53.4940   28.4670   11.2710 C.2    32  ARG32       0.2260
      4  O         53.9910   28.5820   10.1580 O.2    32  ARG32      -0.2867
      5  CB        51.8310   30.2780   11.9220 C.3    32  ARG32       0.0307
      6  CG        51.3940   31.3000   12.9750 C.3    32  ARG32       0.0489
      7  CD        49.9220   31.7910   12.7970 C.3    32  ARG32       0.2205
      8  NE        48.9970   30.6650   12.6650 N.pl3  32  ARG32      -0.0865
      9  CZ        48.5960   30.1300   11.5050 C.cat  32  ARG32       0.5346
     10  NH1       49.0140   30.6250   10.3390 N.pl3  32  ARG32       0.1354
     11  NH2       47.8080   29.0540   11.5120 N.pl3  32  ARG32       0.1354
     12  N         44.2840   15.2580   12.5820 N.3    45  GLU45      -0.1245
     13  CA        43.1900   16.1440   12.8780 C.3    45  GLU45       0.1567
     14  C         41.9130   15.4260   12.4960 C.2    45  GLU45       0.2260
     15  O         41.8970   14.6450   11.5520 O.2    45  GLU45      -0.2867
     16  CB        43.3290   17.4290   12.0820 C.3    45  GLU45       0.0388
     17  CG        44.7910   17.9820   11.9740 C.3    45  GLU45       0.1160
     18  CD        44.9040   19.4810   11.5510 C.2    45  GLU45       0.3649
     19  OE1       44.9210   20.3290   12.4640 O.co2  45  GLU45      -0.2457
     20  OE2       44.9820   19.8230   10.3390 O.co2  45  GLU45      -0.2457
     21  N         39.1900   16.4750   11.0180 N.3    47  LYS47      -0.1245
     22  CA        38.7760   16.9240    9.6760 C.3    47  LYS47       0.1561
     23  C         39.1040   15.9410    8.5270 C.2    47  LYS47       0.2260
     24  O         38.3080   15.8020    7.5880 O.2    47  LYS47      -0.2867
     25  CB        39.3780   18.3530    9.4780 C.3    47  LYS47       0.0271
     26  CG        40.0220   18.7980    8.1470 C.3    47  LYS47       0.0035
     27  CD        40.8500   20.0820    8.4160 C.3    47  LYS47       0.0206
     28  CE        41.2900   20.9340    7.1660 C.3    47  LYS47       0.1093
     29  NZ        40.2100   21.7960    6.5310 N.3    47  LYS47      -0.1314
     30  N         38.0050   38.4680    7.8780 N.3   150  LYS150     -0.1245
     31  CA        36.9100   37.5160    7.6520 C.3   150  LYS150      0.1561
     32  C         36.6000   37.2940    6.1270 C.2   150  LYS150      0.2260
     33  O         36.8150   36.1910    5.5760 O.2   150  LYS150     -0.2867
     34  CB        35.6830   38.0700    8.4440 C.3   150  LYS150      0.0271
     35  CG        34.4430   37.1570    8.6040 C.3   150  LYS150      0.0035
     36  CD        34.8120   35.6970    8.9340 C.3   150  LYS150      0.0206
     37  CE        33.6130   34.9060    9.4980 C.3   150  LYS150      0.1093
     38  NZ        33.8130   33.4160    9.5900 N.3   150  LYS150     -0.1314
     39  N         38.1810   37.9440    3.6530 N.3   152  LYS152     -0.1245
     40  CA        39.4140   37.7820    2.8540 C.3   152  LYS152      0.1561
     41  C         39.7740   39.1320    2.2060 C.2   152  LYS152      0.2260
     42  O         40.5320   39.2090    1.2280 O.2   152  LYS152     -0.2867
     43  CB        39.2810   36.7020    1.7790 C.3   152  LYS152      0.0271
     44  CG        39.6740   35.3090    2.2910 C.3   152  LYS152      0.0035
     45  CD        41.1090   35.2830    2.7980 C.3   152  LYS152      0.0206
     46  CE        41.7600   33.8790    2.7010 C.3   152  LYS152      0.1093
     47  NZ        41.3690   32.8840    3.7680 N.3   152  LYS152     -0.1314
     48  N         50.9290   30.5230    4.2760 N.3   216  ALA216     -0.1245
     49  CA        50.6650   30.0180    5.6350 C.3   216  ALA216      0.1562
     50  C         51.4850   28.7930    6.0840 C.2   216  ALA216      0.2260
     51  O         51.6220   28.5230    7.2820 O.2   216  ALA216     -0.2867
     52  CB        49.1720   29.6930    5.7610 C.3   216  ALA216      0.0290
     53  N         50.9640   25.4970    4.6340 N.3   218  VAL218     -0.1245
     54  CA        50.3120   24.2180    4.4850 C.3   218  VAL218      0.1561
     55  C         50.0690   23.7350    3.0980 C.2   218  VAL218      0.2260
     56  O         50.6300   22.7350    2.7120 O.2   218  VAL218     -0.2867
     57  CB        48.9650   24.1520    5.3410 C.3   218  VAL218      0.0252
     58  CG1       48.5690   25.5180    5.7700 C.3   218  VAL218      0.0019
     59  CG2       47.8190   23.4990    4.5650 C.3   218  VAL218      0.0019
     60  N         49.8530   19.1610    5.8510 N.3   248  PHE248     -0.1241
     61  CA        48.4990   18.8740    5.4020 C.3   248  PHE248      0.1605
     62  C         48.4080   17.4110    4.9800 C.2   248  PHE248      0.2264
     63  O         49.4260   16.7930    4.6920 O.2   248  PHE248     -0.2867
     64  CB        48.1760   19.7560    4.2080 C.3   248  PHE248      0.0534
     65  CG        46.7710   19.6410    3.6980 C.ar  248  PHE248     -0.0203
     66  CD1       46.5010   18.9320    2.5510 C.ar  248  PHE248     -0.0042
     67  CD2       45.7480   20.3750    4.2780 C.ar  248  PHE248     -0.0042
     68  CE1       45.2380   18.9680    1.9700 C.ar  248  PHE248     -0.0003
     69  CE2       44.4780   20.4190    3.7070 C.ar  248  PHE248     -0.0003
     70  CZ        44.2290   19.7140    2.5450 C.ar  248  PHE248     -0.0000
     71  N         35.0060   19.8340    2.8380 N.3   256  LYS256     -0.1231
     72  CA        33.9930   20.8080    3.2990 C.3   256  LYS256      0.1693
     73  C         34.5890   22.1670    3.2000 C.2   256  LYS256      0.2593
     74  O         35.7530   22.3810    3.5640 O.2   256  LYS256     -0.2718
     75  CB        33.5900   20.5890    4.7660 C.3   256  LYS256      0.0285
     76  CG        32.9890   19.2240    5.0690 C.3   256  LYS256      0.0035
     77  CD        33.1040   18.9090    6.5430 C.3   256  LYS256      0.0206
     78  CE        32.4790   17.5110    6.8720 C.3   256  LYS256      0.1093
     79  NZ        32.5790   17.0240    8.3170 N.3   256  LYS256     -0.1314
     80  N         33.7820   23.1080    2.7240 N.am  257  THR257     -0.1939
     81  CA        34.2350   24.4580    2.5160 C.3   257  THR257      0.2028
     82  C         33.1620   25.4270    2.9500 C.2   257  THR257      0.2642
     83  O         32.0150   25.0340    3.1300 O.2   257  THR257     -0.2714
     84  CB        34.4520   24.6640    1.0500 C.3   257  THR257      0.1808
     85  OG1       33.2070   24.4490    0.3790 O.3   257  THR257     -0.2208
     86  CG2       35.4700   23.6660    0.5210 C.3   257  THR257      0.0379
     87  N         33.5690   26.6850    3.1160 N.am  258  LYS258     -0.1977
     88  CA        32.6950   27.7940    3.4720 C.3   258  LYS258      0.1596
     89  C         31.8560   28.0730    2.2300 C.2   258  LYS258      0.2287
     90  O         32.2460   27.7180    1.1060 O.2   258  LYS258     -0.2864
     91  CB        33.5160   29.0230    3.7870 C.3   258  LYS258      0.0298
     92  CG        34.5320   28.8020    4.8600 C.3   258  LYS258      0.0038
     93  CD        35.2250   30.1020    5.2660 C.3   258  LYS258      0.0206
     94  CE        36.3460   29.7820    6.2430 C.3   258  LYS258      0.1093
     95  NZ        37.3870   30.8630    6.3030 N.3   258  LYS258     -0.1314
     96  N         33.6880   29.6220   -0.5270 N.3   261  ASP261     -0.1239
     97  CA        34.8820   28.9140   -0.9810 C.3   261  ASP261      0.1674
     98  C         34.6450   27.6180   -1.7990 C.2   261  ASP261      0.2266
     99  O         35.5980   26.8490   -2.0300 O.2   261  ASP261     -0.2867
    100  CB        35.7600   28.5260    0.2250 C.3   261  ASP261      0.1410
    101  CG        36.5940   29.6810    0.7850 C.2   261  ASP261      0.3668
    102  OD1       36.6960   30.7570    0.1460 O.co2 261  ASP261     -0.2456
    103  OD2       37.1710   29.4920    1.8920 O.co2 261  ASP261     -0.2456
    104  N         36.8640   25.9060   -4.3690 N.3   264  LYS264     -0.1245
    105  CA        38.0150   25.0880   -3.9690 C.3   264  LYS264      0.1561
    106  C         37.9210   23.5640   -4.1400 C.2   264  LYS264      0.2260
    107  O         38.9340   22.8580   -4.2770 O.2   264  LYS264     -0.2867
    108  CB        38.3670   25.3720   -2.4970 C.3   264  LYS264      0.0271
    109  CG        39.2380   26.6090   -2.2250 C.3   264  LYS264      0.0035
    110  CD        39.2560   26.9000   -0.7440 C.3   264  LYS264      0.0206
    111  CE        40.2260   27.9750   -0.3190 C.3   264  LYS264      0.1093
    112  NZ        39.9440   28.3600    1.1120 N.3   264  LYS264     -0.1314
    113  N         40.8590   20.8290   -4.6680 N.3   268  TYR268     -0.1241
    114  CA        41.2840   19.9210   -3.6090 C.3   268  TYR268      0.1605
    115  C         41.2640   18.5160   -4.1930 C.2   268  TYR268      0.2264
    116  O         42.2110   17.7680   -4.0040 O.2   268  TYR268     -0.2867
    117  CB        40.3430   19.9590   -2.3980 C.3   268  TYR268      0.0534
    118  CG        40.6190   21.0690   -1.3900 C.ar  268  TYR268     -0.0201
    119  CD1       41.9180   21.2730   -0.8740 C.ar  268  TYR268     -0.0009
    120  CD2       39.5830   21.8710   -0.9010 C.ar  268  TYR268     -0.0009
    121  CE1       42.1830   22.2480    0.1200 C.ar  268  TYR268      0.0417
    122  CE2       39.8380   22.8310    0.0760 C.ar  268  TYR268      0.0417
    123  CZ        41.1430   23.0070    0.5830 C.ar  268  TYR268      0.1957
    124  OH        41.3870   23.9200    1.5780 O.3   268  TYR268     -0.2866
@<TRIPOS>BOND
     1   113   114    1
     2   104   105    1
     3   107   106    2
     4   115   116    2
     5   115   114    1
     6   106   105    1
     7   105   108    1
     8   114   117    1
     9   108   109    1
    10   117   118    1
    11   109   110    1
    12    99    98    2
    13    98    97    1
    14   118   120   ar
    15   118   119   ar
    16    97    96    1
    17    97   100    1
    18   120   122   ar
    19   119   121   ar
    20   110   111    1
    21   111   112    1
    22   122   123   ar
    23   121   123   ar
    24   102   101   ar
    25   100   101    1
    26    85    84    1
    27    86    84    1
    28   123   124    1
    29   101   103   ar
    30    84    81    1
    31    90    89    2
    32    42    41    2
    33    43    44    1
    34    43    40    1
    35    68    70   ar
    36    68    66   ar
    37    41    40    1
    38    89    88    1
    39    44    45    1
    40    81    80    1
    41    81    82    1
    42    70    69   ar
    43    66    65   ar
    44    46    45    1
    45    46    47    1
    46    56    55    2
    47    80    73   am
    48    71    72    1
    49    40    39    1
    50    82    87   am
    51    82    83    2
    52    55    54    1
    53    87    88    1
    54    73    72    1
    55    73    74    2
    56    72    75    1
    57    88    91    1
    58    65    64    1
    59    65    67   ar
    60    69    67   ar
    61    91    92    1
    62    64    61    1
    63    48    49    1
    64    54    53    1
    65    54    57    1
    66    59    57    1
    67    63    62    2
    68    75    76    1
    69    92    93    1
    70    62    61    1
    71    76    77    1
    72    93    94    1
    73    57    58    1
    74    61    60    1
    75    33    32    2
    76    49    52    1
    77    49    50    1
    78    50    51    2
    79    32    31    1
    80    94    95    1
    81    29    28    1
    82    77    78    1
    83    78    79    1
    84    28    27    1
    85    24    23    2
    86    31    30    1
    87    31    34    1
    88    26    27    1
    89    26    25    1
    90    34    35    1
    91    23    22    1
    92    35    36    1
    93    36    37    1
    94    25    22    1
    95    37    38    1
    96    22    21    1
    97     4     3    2
    98    10     9    1
    99    20    18   ar
   100     3     2    1
   101     9    11    1
   102     9     8    2
   103    18    17    1
   104    18    19   ar
   105    15    14    2
   106     5     2    1
   107     5     6    1
   108     1     2    1
   109    17    16    1
   110    16    13    1
   111    14    13    1
   112    12    13    1
   113     8     7    1
   114     7     6    1
