@<TRIPOS>MOLECULE
tmp/1u26B00.pdb
 208 198 0 0 0
SMALL
GASTEIGER

@<TRIPOS>ATOM
      1  N         58.5710   61.0720   18.4450 N.3    23  ARG23      -0.1245
      2  CA        59.9800   60.8720   18.1340 C.3    23  ARG23       0.1563
      3  C         60.1820   60.8580   16.6170 C.2    23  ARG23       0.2260
      4  O         59.3200   60.3910   15.8720 O.2    23  ARG23      -0.2867
      5  CB        60.4670   59.5360   18.7090 C.3    23  ARG23       0.0307
      6  CG        61.9410   59.5620   19.0850 C.3    23  ARG23       0.0489
      7  CD        62.7650   58.3770   18.5750 C.3    23  ARG23       0.2205
      8  NE        62.4030   57.1060   19.1820 N.pl3  23  ARG23      -0.0865
      9  CZ        63.2090   56.0480   19.2020 C.cat  23  ARG23       0.5346
     10  NH1       64.4140   56.1330   18.6570 N.pl3  23  ARG23       0.1354
     11  NH2       62.8070   54.9050   19.7460 N.pl3  23  ARG23       0.1354
     12  N         70.5200   49.7140    8.7020 N.3    35  ASN35      -0.1240
     13  CA        70.5600   48.2670    8.7930 C.3    35  ASN35       0.1653
     14  C         69.7360   47.5210    7.7440 C.2    35  ASN35       0.2266
     15  O         69.0470   46.5510    8.0640 O.2    35  ASN35      -0.2867
     16  CB        70.1120   47.8470   10.1920 C.3    35  ASN35       0.1155
     17  CG        70.9240   48.5150   11.2790 C.2    35  ASN35       0.2627
     18  OD1       72.1470   48.3600   11.3470 O.2    35  ASN35      -0.2716
     19  ND2       70.2530   49.2670   12.1350 N.am   35  ASN35      -0.0877
     20  N         81.2660   42.1940   20.4640 N.3    49  LYS49      -0.1245
     21  CA        80.3880   42.2530   21.6310 C.3    49  LYS49       0.1561
     22  C         79.6520   40.9320   21.8490 C.2    49  LYS49       0.2260
     23  O         79.0140   40.7350   22.8870 O.2    49  LYS49      -0.2867
     24  CB        79.3590   43.3800   21.4760 C.3    49  LYS49       0.0271
     25  CG        78.4100   43.1890   20.3010 C.3    49  LYS49       0.0035
     26  CD        77.1660   44.0630   20.4050 C.3    49  LYS49       0.0206
     27  CE        77.4880   45.5410   20.2920 C.3    49  LYS49       0.1093
     28  NZ        76.2490   46.3720   20.3440 N.3    49  LYS49      -0.1314
     29  N         56.3040   58.3330   21.2320 N.3   115  TYR115     -0.1241
     30  CA        57.2690   57.7570   22.1500 C.3   115  TYR115      0.1605
     31  C         57.0090   57.9420   23.6530 C.2   115  TYR115      0.2264
     32  O         56.7560   59.0510   24.1440 O.2   115  TYR115     -0.2867
     33  CB        58.6600   58.2930   21.8210 C.3   115  TYR115      0.0534
     34  CG        59.7350   57.7290   22.7130 C.ar  115  TYR115     -0.0201
     35  CD1       60.2360   56.4450   22.5080 C.ar  115  TYR115     -0.0009
     36  CD2       60.2360   58.4710   23.7810 C.ar  115  TYR115     -0.0009
     37  CE1       61.2070   55.9140   23.3450 C.ar  115  TYR115      0.0417
     38  CE2       61.2070   57.9550   24.6220 C.ar  115  TYR115      0.0417
     39  CZ        61.6860   56.6760   24.4000 C.ar  115  TYR115      0.1957
     40  OH        62.6310   56.1590   25.2520 O.3   115  TYR115     -0.2866
     41  N         61.1580   54.1610   27.2310 N.3   118  ARG118     -0.1231
     42  CA        61.4560   52.7920   26.7910 C.3   118  ARG118      0.1694
     43  C         60.7200   52.4190   25.5020 C.2   118  ARG118      0.2592
     44  O         60.8220   51.2830   25.0310 O.2   118  ARG118     -0.2718
     45  CB        61.1000   51.7670   27.8810 C.3   118  ARG118      0.0321
     46  CG        61.9590   51.8380   29.1460 C.3   118  ARG118      0.0489
     47  CD        61.7200   50.6330   30.0690 C.3   118  ARG118      0.2205
     48  NE        62.3780   50.7970   31.3680 N.pl3 118  ARG118     -0.0865
     49  CZ        62.3120   49.9230   32.3690 C.cat 118  ARG118      0.5346
     50  NH1       61.6200   48.7970   32.2410 N.pl3 118  ARG118      0.1354
     51  NH2       62.9260   50.1880   33.5160 N.pl3 118  ARG118      0.1354
     52  N         59.9910   53.3780   24.9320 N.am  119  ASP119     -0.1974
     53  CA        59.2010   53.1440   23.7180 C.3   119  ASP119      0.1709
     54  C         58.1090   52.1300   24.0470 C.2   119  ASP119      0.2293
     55  O         57.7180   51.3370   23.2000 O.2   119  ASP119     -0.2864
     56  CB        60.0820   52.6040   22.5820 C.3   119  ASP119      0.1436
     57  CG        59.3570   52.5690   21.2300 C.2   119  ASP119      0.3671
     58  OD1       58.4790   53.4310   20.9960 O.co2 119  ASP119     -0.2456
     59  OD2       59.6800   51.6940   20.3910 O.co2 119  ASP119     -0.2456
     60  N         65.5820   61.7960   19.8150 N.3   151  LEU151     -0.1245
     61  CA        65.9500   61.6730   21.2160 C.3   151  LEU151      0.1561
     62  C         67.4440   61.9550   21.3550 C.2   151  LEU151      0.2260
     63  O         68.2510   61.4540   20.5750 O.2   151  LEU151     -0.2867
     64  CB        65.6260   60.2640   21.7090 C.3   151  LEU151      0.0270
     65  CG        64.1490   59.8590   21.5970 C.3   151  LEU151      0.0019
     66  CD1       63.9950   58.3600   21.7480 C.3   151  LEU151      0.0001
     67  CD2       63.3340   60.5880   22.6520 C.3   151  LEU151      0.0001
     68  N         67.6750   59.6940   26.6940 N.3   155  LYS155     -0.1245
     69  CA        66.5870   59.1840   25.8700 C.3   155  LYS155      0.1561
     70  C         65.4220   60.1560   25.9580 C.2   155  LYS155      0.2260
     71  O         64.2650   59.7590   26.1090 O.2   155  LYS155     -0.2867
     72  CB        66.1360   57.7990   26.3310 C.3   155  LYS155      0.0271
     73  CG        67.0250   56.6500   25.8670 C.3   155  LYS155      0.0035
     74  CD        68.3670   56.6390   26.5930 C.3   155  LYS155      0.0206
     75  CE        69.2630   55.5060   26.0900 C.3   155  LYS155      0.1093
     76  NZ        68.6440   54.1640   26.2910 N.3   155  LYS155     -0.1314
     77  N         58.4810   46.6330   21.7600 N.3   189  ASP189     -0.1225
     78  CA        59.9250   46.8040   21.5990 C.3   189  ASP189      0.1805
     79  C         60.8600   45.8090   22.3210 C.2   189  ASP189      0.2597
     80  O         60.7360   44.5980   22.1670 O.2   189  ASP189     -0.2718
     81  CB        60.2850   48.2420   21.9790 C.3   189  ASP189      0.1424
     82  CG        61.5370   48.7410   21.2830 C.2   189  ASP189      0.3668
     83  OD1       62.5860   48.0660   21.3670 O.co2 189  ASP189     -0.2456
     84  OD2       61.4700   49.8230   20.6630 O.co2 189  ASP189     -0.2456
     85  N         61.8070   46.3430   23.0810 N.am  190  HIS190     -0.1975
     86  CA        62.8440   45.6060   23.8340 C.3   190  HIS190      0.1656
     87  C         62.6640   44.1860   24.3430 C.2   190  HIS190      0.2291
     88  O         63.5880   43.6090   24.9200 O.2   190  HIS190     -0.2864
     89  CB        63.2260   46.4620   25.0110 C.3   190  HIS190      0.0771
     90  CG        63.3510   47.8960   24.6440 C.ar  190  HIS190      0.0820
     91  ND1       64.5370   48.4340   24.2030 N.ar  190  HIS190     -0.2267
     92  CD2       62.4190   48.8690   24.5220 C.ar  190  HIS190      0.1154
     93  CE1       64.3300   49.6790   23.8240 C.ar  190  HIS190      0.1986
     94  NE2       63.0550   49.9700   24.0030 N.ar  190  HIS190     -0.2212
     95  N         61.3850   47.4590   12.3330 N.3   218  CYS218     -0.1221
     96  CA        60.8600   48.0740   13.5400 C.3   218  CYS218      0.1808
     97  C         61.4930   49.4660   13.6070 C.2   218  CYS218      0.2601
     98  O         61.6490   50.1100   12.5670 O.2   218  CYS218     -0.2717
     99  CB        61.1900   47.2300   14.7750 C.3   218  CYS218      0.0970
    100  SG        62.7920   46.4660   14.7480 S.3   218  CYS218     -0.0800
    101  N         61.8670   49.9350   14.7920 N.am  219  GLU219     -0.1965
    102  CA        62.4630   51.2670   14.9080 C.3   219  GLU219      0.1733
    103  C         63.9320   51.3480   14.4850 C.2   219  GLU219      0.2616
    104  O         64.2990   52.1990   13.6790 O.2   219  GLU219     -0.2715
    105  CB        62.3150   51.7750   16.3450 C.3   219  GLU219      0.0429
    106  CG        62.7660   53.2160   16.5850 C.3   219  GLU219      0.1163
    107  CD        61.9120   54.2400   15.8480 C.2   219  GLU219      0.3649
    108  OE1       61.9410   55.4320   16.2350 O.co2 219  GLU219     -0.2457
    109  OE2       61.2190   53.8540   14.8800 O.co2 219  GLU219     -0.2457
    110  N         64.7680   50.4670   15.0270 N.am  220  ALA220     -0.1977
    111  CA        66.1920   50.4760   14.7070 C.3   220  ALA220      0.1597
    112  C         66.6080   49.3010   13.8300 C.2   220  ALA220      0.2287
    113  O         67.7860   49.1500   13.5070 O.2   220  ALA220     -0.2864
    114  CB        67.0010   50.4590   15.9690 C.3   220  ALA220      0.0319
    115  N         66.9360   46.0210   14.4260 N.3   222  VAL222     -0.1231
    116  CA        67.8460   45.0270   14.9800 C.3   222  VAL222      0.1692
    117  C         67.1420   43.9950   15.8630 C.2   222  VAL222      0.2593
    118  O         67.1020   42.8200   15.5160 O.2   222  VAL222     -0.2718
    119  CB        69.0070   45.6880   15.7720 C.3   222  VAL222      0.0266
    120  CG1       68.4950   46.8490   16.5700 C.3   222  VAL222      0.0020
    121  CG2       69.6710   44.6590   16.6950 C.3   222  VAL222      0.0020
    122  N         66.5810   44.4220   16.9900 N.am  223  GLY223     -0.1942
    123  CA        65.9170   43.4890   17.8940 C.3   223  GLY223      0.2014
    124  C         64.7310   42.6980   17.3650 C.2   223  GLY223      0.2638
    125  O         64.8590   41.5180   17.0440 O.2   223  GLY223     -0.2714
    126  N         63.5720   43.3490   17.2920 N.am  224  ARG224     -0.1977
    127  CA        62.3380   42.7320   16.8120 C.3   224  ARG224      0.1597
    128  C         62.4770   42.1630   15.4010 C.2   224  ARG224      0.2287
    129  O         62.0430   41.0330   15.1090 O.2   224  ARG224     -0.2864
    130  CB        61.2060   43.7640   16.8450 C.3   224  ARG224      0.0334
    131  CG        60.6950   44.0620   18.2540 C.3   224  ARG224      0.0492
    132  CD        59.7460   45.2580   18.2950 C.3   224  ARG224      0.2205
    133  NE        60.4320   46.5130   18.0090 N.pl3 224  ARG224     -0.0865
    134  CZ        59.8630   47.7080   18.0940 C.cat 224  ARG224      0.5346
    135  NH1       58.5940   47.8150   18.4640 N.pl3 224  ARG224      0.1354
    136  NH2       60.5530   48.7960   17.7840 N.pl3 224  ARG224      0.1354
    137  N         71.3580   40.9870   14.2910 N.3   255  PHE255     -0.1241
    138  CA        71.7370   40.8330   15.6870 C.3   255  PHE255      0.1605
    139  C         72.0090   39.3520   15.9570 C.2   255  PHE255      0.2264
    140  O         71.4520   38.4830   15.2800 O.2   255  PHE255     -0.2867
    141  CB        70.6000   41.3540   16.5780 C.3   255  PHE255      0.0534
    142  CG        70.9060   41.3330   18.0520 C.ar  255  PHE255     -0.0203
    143  CD1       70.4750   40.2790   18.8530 C.ar  255  PHE255     -0.0042
    144  CD2       71.5980   42.3850   18.6470 C.ar  255  PHE255     -0.0042
    145  CE1       70.7250   40.2750   20.2240 C.ar  255  PHE255     -0.0003
    146  CE2       71.8530   42.3920   20.0160 C.ar  255  PHE255     -0.0003
    147  CZ        71.4160   41.3360   20.8050 C.ar  255  PHE255     -0.0000
    148  N         75.2660   49.1750   29.9960 N.3   265  LYS265     -0.1245
    149  CA        75.5480   50.2970   30.8770 C.3   265  LYS265      0.1561
    150  C         74.5300   50.1060   31.9880 C.2   265  LYS265      0.2260
    151  O         73.4950   49.4720   31.7710 O.2   265  LYS265     -0.2867
    152  CB        75.2740   51.6370   30.1770 C.3   265  LYS265      0.0271
    153  CG        75.9850   51.8530   28.8390 C.3   265  LYS265      0.0035
    154  CD        75.4750   50.9140   27.7450 C.3   265  LYS265      0.0206
    155  CE        73.9790   51.0750   27.5260 C.3   265  LYS265      0.1093
    156  NZ        73.4090   50.0000   26.6630 N.3   265  LYS265     -0.1314
    157  N         70.9380   51.0360   31.3060 N.3   268  ASP268     -0.1239
    158  CA        70.0020   50.1080   30.6920 C.3   268  ASP268      0.1674
    159  C         70.0540   48.7070   31.2940 C.2   268  ASP268      0.2266
    160  O         69.8130   47.7140   30.6010 O.2   268  ASP268     -0.2867
    161  CB        70.2840   50.0240   29.1900 C.3   268  ASP268      0.1410
    162  CG        70.4200   51.3950   28.5420 C.2   268  ASP268      0.3668
    163  OD1       69.6290   52.3000   28.8890 O.co2 268  ASP268     -0.2456
    164  OD2       71.3080   51.5640   27.6770 O.co2 268  ASP268     -0.2456
    165  N         68.0340   47.3350   32.9920 N.3   270  TRP270     -0.1227
    166  CA        66.7030   46.7360   32.9590 C.3   270  TRP270      0.1737
    167  C         66.5400   45.8710   31.7090 C.2   270  TRP270      0.2595
    168  O         65.7150   44.9590   31.6850 O.2   270  TRP270     -0.2718
    169  CB        65.6160   47.8170   32.9780 C.3   270  TRP270      0.0564
    170  CG        65.6150   48.7160   31.7800 C.ar  270  TRP270      0.0003
    171  CD1       66.2050   49.9450   31.6710 C.ar  270  TRP270      0.0946
    172  CD2       65.0180   48.4450   30.5060 C.ar  270  TRP270      0.0152
    173  NE1       66.0100   50.4570   30.4060 N.ar  270  TRP270     -0.2442
    174  CE2       65.2830   49.5560   29.6730 C.ar  270  TRP270      0.0810
    175  CE3       64.2800   47.3720   29.9870 C.ar  270  TRP270      0.0012
    176  CZ2       64.8410   49.6210   28.3510 C.ar  270  TRP270      0.0191
    177  CZ3       63.8420   47.4360   28.6730 C.ar  270  TRP270      0.0001
    178  CH2       64.1220   48.5550   27.8700 C.ar  270  TRP270      0.0015
    179  N         67.3250   46.1600   30.6740 N.am  271  LYS271     -0.1980
    180  CA        67.2570   45.4040   29.4260 C.3   271  LYS271      0.1596
    181  C         67.8440   43.9990   29.6060 C.2   271  LYS271      0.2287
    182  O         67.4060   43.0390   28.9600 O.2   271  LYS271     -0.2864
    183  CB        68.0350   46.1310   28.3220 C.3   271  LYS271      0.0298
    184  CG        67.6130   47.5800   28.0830 C.3   271  LYS271      0.0038
    185  CD        68.2160   48.1470   26.7930 C.3   271  LYS271      0.0206
    186  CE        67.5680   49.4910   26.4000 C.3   271  LYS271      0.1093
    187  NZ        67.8760   49.9750   25.0000 N.3   271  LYS271     -0.1314
    188  N         67.0900   40.4420   27.3200 N.3   275  TYR275     -0.1241
    189  CA        67.9930   39.8310   26.3510 C.3   275  TYR275      0.1605
    190  C         68.0200   38.3370   26.6640 C.2   275  TYR275      0.2264
    191  O         67.7690   37.4930   25.7980 O.2   275  TYR275     -0.2867
    192  CB        69.4190   40.3840   26.4860 C.3   275  TYR275      0.0534
    193  CG        69.6370   41.7890   25.9500 C.ar  275  TYR275     -0.0201
    194  CD1       69.3820   42.1040   24.6100 C.ar  275  TYR275     -0.0009
    195  CD2       70.1370   42.7930   26.7780 C.ar  275  TYR275     -0.0009
    196  CE1       69.6210   43.3870   24.1150 C.ar  275  TYR275      0.0417
    197  CE2       70.3800   44.0730   26.2950 C.ar  275  TYR275      0.0417
    198  CZ        70.1210   44.3670   24.9680 C.ar  275  TYR275      0.1957
    199  OH        70.3560   45.6480   24.5110 O.3   275  TYR275     -0.2866
    200  N         64.9940   36.4590   25.6400 N.3   278  LYS278     -0.1245
    201  CA        64.9840   36.2360   24.1970 C.3   278  LYS278      0.1561
    202  C         65.8350   35.0200   23.8610 C.2   278  LYS278      0.2260
    203  O         65.3860   34.1070   23.1860 O.2   278  LYS278     -0.2867
    204  CB        65.5600   37.4440   23.4570 C.3   278  LYS278      0.0271
    205  CG        64.8210   38.7460   23.6420 C.3   278  LYS278      0.0035
    206  CD        65.5300   39.8290   22.8620 C.3   278  LYS278      0.0206
    207  CE        64.8310   41.1550   22.9780 C.3   278  LYS278      0.1093
    208  NZ        65.5490   42.1830   22.1760 N.3   278  LYS278     -0.1314
@<TRIPOS>BOND
     1    14    15    2
     2    14    13    1
     3    12    13    1
     4    13    16    1
     5    16    17    1
     6    17    18    2
     7    17    19   am
     8    95    96    1
     9    98    97    2
    10   113   112    2
    11    96    97    1
    12    96    99    1
    13    97   101   am
    14   104   103    2
    15   112   111    1
    16   137   138    1
    17   115   116    1
    18   103   102    1
    19   103   110   am
    20   111   110    1
    21   111   114    1
    22   100    99    1
    23   101   102    1
    24   109   107   ar
    25   102   105    1
    26   116   119    1
    27   116   117    1
    28   129   128    2
    29   140   139    2
    30   128   127    1
    31   118   117    2
    32   138   139    1
    33   138   141    1
    34   119   120    1
    35   119   121    1
    36   107   108   ar
    37   107   106    1
    38   117   122   am
    39     4     3    2
    40   105   106    1
    41   141   142    1
    42     3     2    1
    43   127   130    1
    44   127   126    1
    45   130   131    1
    46   122   123    1
    47   125   124    2
    48   126   124   am
    49   124   123    1
    50   136   134    1
    51   133   134    2
    52   133   132    1
    53   142   144   ar
    54   142   143   ar
    55   134   135    1
    56     2     1    1
    57     2     5    1
    58   131   132    1
    59     7     6    1
    60     7     8    1
    61   144   146   ar
    62    10     9    1
    63     5     6    1
    64   143   145   ar
    65     8     9    2
    66     9    11    1
    67    60    61    1
    68   146   147   ar
    69   145   147   ar
    70    27    28    1
    71    27    26    1
    72    25    26    1
    73    25    24    1
    74    59    57   ar
    75    20    21    1
    76    63    62    2
    77    84    82   ar
    78    58    57   ar
    79    61    62    1
    80    61    64    1
    81    57    56    1
    82    29    30    1
    83    82    83   ar
    84    82    81    1
    85    24    21    1
    86    65    64    1
    87    65    66    1
    88    65    67    1
    89    78    77    1
    90    78    81    1
    91    78    79    1
    92    21    22    1
    93    33    30    1
    94    33    34    1
    95    22    23    2
    96    30    31    1
    97    80    79    2
    98   208   207    1
    99    79    85   am
   100    35    34   ar
   101    35    37   ar
   102    56    53    1
   103    34    36   ar
   104   206   207    1
   105   206   205    1
   106    85    86    1
   107   203   202    2
   108    55    54    2
   109    37    39   ar
   110   204   205    1
   111   204   201    1
   112    31    32    2
   113    53    54    1
   114    53    52    1
   115    36    38   ar
   116    93    94   ar
   117    93    91   ar
   118    86    87    1
   119    86    89    1
   120   202   201    1
   121    94    92   ar
   122   196   194   ar
   123   196   198   ar
   124   201   200    1
   125    91    90   ar
   126    87    88    2
   127    39    38   ar
   128    39    40    1
   129   199   198    1
   130    92    90   ar
   131   194   193   ar
   132    90    89    1
   133    52    43   am
   134   198   197   ar
   135   187   186    1
   136    44    43    2
   137    43    42    1
   138   191   190    2
   139    73    72    1
   140    73    74    1
   141    69    70    1
   142    69    72    1
   143    69    68    1
   144   193   192    1
   145   193   195   ar
   146    70    71    2
   147    75    76    1
   148    75    74    1
   149   197   195   ar
   150   189   192    1
   151   189   190    1
   152   189   188    1
   153   186   185    1
   154   156   155    1
   155    42    41    1
   156    42    45    1
   157   185   184    1
   158   155   154    1
   159   164   162   ar
   160   154   153    1
   161   178   176   ar
   162   178   177   ar
   163    45    46    1
   164   184   183    1
   165   183   180    1
   166   176   174   ar
   167   162   163   ar
   168   162   161    1
   169   177   175   ar
   170   153   152    1
   171   182   181    2
   172    46    47    1
   173   161   158    1
   174   180   181    1
   175   180   179    1
   176   174   173   ar
   177   174   172   ar
   178   175   172   ar
   179   148   149    1
   180    47    48    1
   181   152   149    1
   182   173   171   ar
   183   172   170   ar
   184   160   159    2
   185   179   167   am
   186   158   159    1
   187   158   157    1
   188   149   150    1
   189    48    49    2
   190   171   170   ar
   191   168   167    2
   192   167   166    1
   193   151   150    2
   194   170   169    1
   195    50    49    1
   196    49    51    1
   197   166   169    1
   198   166   165    1
