@<TRIPOS>MOLECULE
tmp/1u28B00.pdb
 146 141 0 0 0
SMALL
GASTEIGER

@<TRIPOS>ATOM
      1  N        -28.7700  -44.0840   22.8240 N.3   127  ARG127     -0.1245
      2  CA       -28.1210  -43.2860   21.7820 C.3   127  ARG127      0.1563
      3  C        -28.8640  -43.4390   20.4490 C.2   127  ARG127      0.2260
      4  O        -28.3310  -43.9630   19.4800 O.2   127  ARG127     -0.2867
      5  CB       -26.6480  -43.7030   21.6350 C.3   127  ARG127      0.0307
      6  CG       -25.8450  -43.7190   22.9470 C.3   127  ARG127      0.0489
      7  CD       -25.7540  -42.3270   23.5610 C.3   127  ARG127      0.2205
      8  NE       -24.9030  -42.2700   24.7570 N.pl3 127  ARG127     -0.0865
      9  CZ       -23.5660  -42.3000   24.7540 C.cat 127  ARG127      0.5346
     10  NH1      -22.8790  -42.4150   23.6090 N.pl3 127  ARG127      0.1354
     11  NH2      -22.9050  -42.2300   25.9130 N.pl3 127  ARG127      0.1354
     12  N        -25.7800  -35.9610   28.7740 N.3   137  LEU137     -0.1245
     13  CA       -24.3430  -36.1470   28.6130 C.3   137  LEU137      0.1561
     14  C        -23.7720  -35.1110   27.6340 C.2   137  LEU137      0.2260
     15  O        -22.8450  -34.3730   27.9730 O.2   137  LEU137     -0.2867
     16  CB       -24.0230  -37.5800   28.1860 C.3   137  LEU137      0.0270
     17  CG       -23.6350  -38.5750   29.2930 C.3   137  LEU137      0.0019
     18  CD1      -24.2510  -38.2790   30.6630 C.3   137  LEU137      0.0001
     19  CD2      -23.9500  -40.0160   28.8430 C.3   137  LEU137      0.0001
     20  N        -21.4690  -31.8060   28.6870 N.3   141  SER141     -0.1217
     21  CA       -20.1130  -31.9320   28.1030 C.3   141  SER141      0.1889
     22  C        -19.7100  -30.8340   27.1130 C.2   141  SER141      0.2288
     23  O        -18.5480  -30.4190   27.0790 O.2   141  SER141     -0.2866
     24  CB       -20.0150  -33.2380   27.3280 C.3   141  SER141      0.2089
     25  OG       -20.0230  -34.3270   28.2140 O.3   141  SER141     -0.2183
     26  N         -6.6470  -33.3310   23.3950 N.3   178  PHE178     -0.1227
     27  CA        -6.5850  -34.7980   23.4600 C.3   178  PHE178      0.1736
     28  C         -7.9840  -35.3590   23.7020 C.2   178  PHE178      0.2596
     29  O         -8.5630  -35.1460   24.7640 O.2   178  PHE178     -0.2718
     30  CB        -5.6800  -35.2750   24.6040 C.3   178  PHE178      0.0547
     31  CG        -4.2170  -34.9550   24.4300 C.ar  178  PHE178     -0.0202
     32  CD1       -3.7150  -33.6990   24.7680 C.ar  178  PHE178     -0.0042
     33  CD2       -3.3280  -35.9300   23.9720 C.ar  178  PHE178     -0.0042
     34  CE1       -2.3510  -33.4100   24.6330 C.ar  178  PHE178     -0.0003
     35  CE2       -1.9700  -35.6520   23.8270 C.ar  178  PHE178     -0.0003
     36  CZ        -1.4800  -34.3880   24.1620 C.ar  178  PHE178     -0.0000
     37  N         -8.5060  -36.1060   22.7290 N.am  179  GLY179     -0.1942
     38  CA        -9.8560  -36.6520   22.8040 C.3   179  GLY179      0.2014
     39  C        -10.8090  -35.6970   22.1180 C.2   179  GLY179      0.2639
     40  O        -10.8850  -34.5170   22.4880 O.2   179  GLY179     -0.2714
     41  N        -11.5360  -36.2020   21.1200 N.am  180  VAL180     -0.1963
     42  CA       -12.4050  -35.3740   20.2950 C.3   180  VAL180      0.1727
     43  C        -13.8470  -35.9010   20.3210 C.2   180  VAL180      0.2617
     44  O        -14.4310  -36.2270   19.2810 O.2   180  VAL180     -0.2715
     45  CB       -11.8800  -35.2930   18.8350 C.3   180  VAL180      0.0290
     46  CG1      -12.6380  -34.2280   18.0290 C.3   180  VAL180      0.0023
     47  CG2      -10.3720  -34.9740   18.8040 C.3   180  VAL180      0.0023
     48  N        -14.4120  -35.9860   21.5220 N.am  181  GLY181     -0.1940
     49  CA       -15.8500  -36.1610   21.6880 C.3   181  GLY181      0.2014
     50  C        -16.5300  -34.8050   21.6450 C.2   181  GLY181      0.2639
     51  O        -16.0330  -33.8900   21.0010 O.2   181  GLY181     -0.2714
     52  N        -17.6480  -34.6700   22.3610 N.am  182  VAL182     -0.1963
     53  CA       -18.4630  -33.4500   22.3570 C.3   182  VAL182      0.1727
     54  C        -17.6730  -32.2830   22.9710 C.2   182  VAL182      0.2616
     55  O        -17.5640  -31.1930   22.3780 O.2   182  VAL182     -0.2715
     56  CB       -19.8200  -33.6740   23.1250 C.3   182  VAL182      0.0290
     57  CG1      -20.6670  -32.4260   23.1390 C.3   182  VAL182      0.0023
     58  CG2      -20.6170  -34.8060   22.4970 C.3   182  VAL182      0.0023
     59  N        -17.1170  -32.5280   24.1540 N.am  183  ALA183     -0.1977
     60  CA       -16.2770  -31.5470   24.8430 C.3   183  ALA183      0.1597
     61  C        -15.0770  -31.0910   23.9930 C.2   183  ALA183      0.2287
     62  O        -14.8410  -29.8940   23.8350 O.2   183  ALA183     -0.2864
     63  CB       -15.7970  -32.1200   26.1660 C.3   183  ALA183      0.0319
     64  N         -5.6770  -34.7720   18.7390 N.3   201  THR201     -0.1203
     65  CA        -5.4920  -36.1980   18.5120 C.3   201  THR201      0.1994
     66  C         -6.5870  -37.0150   19.1960 C.2   201  THR201      0.2618
     67  O         -7.1080  -36.6380   20.2490 O.2   201  THR201     -0.2717
     68  CB        -4.0990  -36.7050   18.9800 C.3   201  THR201      0.1784
     69  OG1       -3.9820  -38.1040   18.6910 O.3   201  THR201     -0.2211
     70  CG2       -3.8830  -36.4860   20.4780 C.3   201  THR201      0.0376
     71  N         -6.9230  -38.1360   18.5590 N.am  202  ASP202     -0.1959
     72  CA        -7.8520  -39.1210   19.0950 C.3   202  ASP202      0.1840
     73  C         -7.4750  -40.4790   18.4930 C.2   202  ASP202      0.2622
     74  O         -6.9220  -40.5430   17.3910 O.2   202  ASP202     -0.2715
     75  CB        -9.2860  -38.7460   18.7240 C.3   202  ASP202      0.1450
     76  CG       -10.3320  -39.4710   19.5640 C.2   202  ASP202      0.3671
     77  OD1      -10.3420  -40.7280   19.5900 O.co2 202  ASP202     -0.2456
     78  OD2      -11.1660  -38.7750   20.1760 O.co2 202  ASP202     -0.2456
     79  N         -7.7560  -41.5530   19.2220 N.am  203  VAL203     -0.1963
     80  CA        -7.5380  -42.9050   18.7070 C.3   203  VAL203      0.1727
     81  C         -8.4720  -43.2220   17.5270 C.2   203  VAL203      0.2616
     82  O         -8.0360  -43.7920   16.5230 O.2   203  VAL203     -0.2715
     83  CB        -7.6880  -43.9940   19.8180 C.3   203  VAL203      0.0290
     84  CG1       -6.5930  -43.8370   20.8660 C.3   203  VAL203      0.0023
     85  CG2       -9.0880  -43.9660   20.4760 C.3   203  VAL203      0.0023
     86  N         -9.7370  -42.8150   17.6440 N.am  204  ARG204     -0.1977
     87  CA       -10.7760  -43.1560   16.6660 C.3   204  ARG204      0.1597
     88  C        -10.5180  -42.5570   15.2820 C.2   204  ARG204      0.2287
     89  O        -10.1120  -41.4040   15.1610 O.2   204  ARG204     -0.2864
     90  CB       -12.1580  -42.7150   17.1660 C.3   204  ARG204      0.0334
     91  CG       -12.6170  -43.4370   18.4320 C.3   204  ARG204      0.0492
     92  CD       -14.1270  -43.3420   18.6540 C.3   204  ARG204      0.2205
     93  NE       -14.5620  -42.1230   19.3590 N.pl3 204  ARG204     -0.0865
     94  CZ       -15.2130  -41.0910   18.8080 C.cat 204  ARG204      0.5346
     95  NH1      -15.5290  -41.0630   17.5140 N.pl3 204  ARG204      0.1354
     96  NH2      -15.5620  -40.0630   19.5650 N.pl3 204  ARG204      0.1354
     97  N         -9.6110  -34.5590   27.3350 N.3   243  THR243     -0.1203
     98  CA       -11.0390  -34.8260   27.5260 C.3   243  THR243      0.1994
     99  C        -11.3990  -36.3150   27.4910 C.2   243  THR243      0.2618
    100  O        -12.5790  -36.6560   27.5300 O.2   243  THR243     -0.2717
    101  CB       -11.8970  -34.0800   26.4630 C.3   243  THR243      0.1784
    102  OG1      -11.7640  -34.7010   25.1780 O.3   243  THR243     -0.2211
    103  CG2      -11.4790  -32.6230   26.3550 C.3   243  THR243      0.0376
    104  N        -10.3920  -37.1880   27.4510 N.am  244  ALA244     -0.1965
    105  CA       -10.6020  -38.6200   27.2110 C.3   244  ALA244      0.1728
    106  C        -11.1490  -39.3600   28.4270 C.2   244  ALA244      0.2616
    107  O        -10.5360  -39.3550   29.4920 O.2   244  ALA244     -0.2715
    108  CB        -9.3190  -39.2640   26.7460 C.3   244  ALA244      0.0334
    109  N        -12.2850  -40.0300   28.2350 N.am  245  LEU245     -0.1963
    110  CA       -13.0610  -40.6150   29.3280 C.3   245  LEU245      0.1728
    111  C        -13.5890  -42.0070   28.9560 C.2   245  LEU245      0.2616
    112  O        -13.8080  -42.2910   27.7760 O.2   245  LEU245     -0.2715
    113  CB       -14.2230  -39.6790   29.6430 C.3   245  LEU245      0.0311
    114  CG       -14.6620  -39.5000   31.0890 C.3   245  LEU245      0.0022
    115  CD1      -13.4890  -39.1620   32.0070 C.3   245  LEU245      0.0001
    116  CD2      -15.7190  -38.4000   31.1280 C.3   245  LEU245      0.0001
    117  N        -13.7620  -42.8740   29.9590 N.am  246  ILE246     -0.1964
    118  CA       -14.2750  -44.2520   29.7570 C.3   246  ILE246      0.1712
    119  C        -15.2020  -44.6600   30.9190 C.2   246  ILE246      0.2458
    120  O        -14.7190  -44.8840   32.0350 O.2   246  ILE246     -0.2730
    121  CB       -13.1420  -45.2910   29.6560 C.3   246  ILE246      0.0289
    122  CG1      -12.1470  -44.9140   28.5540 C.3   246  ILE246      0.0022
    123  CG2      -13.7240  -46.6910   29.3820 C.3   246  ILE246      0.0023
    124  CD1      -10.9040  -45.7880   28.5010 C.3   246  ILE246      0.0001
    125  N        -16.5300  -44.7640   30.6630 N.am  247  PRO247     -0.2727
    126  CA       -17.5420  -45.0410   31.7030 C.3   247  PRO247      0.1402
    127  C        -17.2140  -46.1980   32.6640 C.2   247  PRO247      0.2269
    128  O        -16.9200  -47.3190   32.2230 O.2   247  PRO247     -0.2865
    129  CB       -18.7970  -45.3750   30.8850 C.3   247  PRO247      0.0296
    130  CG       -18.6340  -44.5940   29.6470 C.3   247  PRO247      0.0237
    131  CD       -17.1610  -44.6110   29.3370 C.3   247  PRO247      0.0939
    132  N         -7.7400  -42.7260   30.7160 N.3   252  PRO252     -0.2116
    133  CA        -6.4620  -43.1030   30.1140 C.3   252  PRO252      0.1372
    134  C         -5.4000  -42.0170   30.2730 C.2   252  PRO252      0.2244
    135  O         -5.7110  -40.8300   30.1310 O.2   252  PRO252     -0.2868
    136  CB        -6.8170  -43.2740   28.6340 C.3   252  PRO252      0.0268
    137  CG        -7.9680  -42.3690   28.4260 C.3   252  PRO252      0.0207
    138  CD        -8.7640  -42.4530   29.6920 C.3   252  PRO252      0.0892
    139  N         -2.6760  -39.7900   29.0210 N.3   254  LEU254     -0.1245
    140  CA        -2.2940  -39.2550   27.7140 C.3   254  LEU254      0.1561
    141  C         -1.0810  -38.3210   27.7690 C.2   254  LEU254      0.2260
    142  O         -0.4290  -38.0880   26.7480 O.2   254  LEU254     -0.2867
    143  CB        -3.4950  -38.5280   27.0930 C.3   254  LEU254      0.0270
    144  CG        -4.7950  -39.3400   27.0480 C.3   254  LEU254      0.0019
    145  CD1       -5.8950  -38.5700   26.3530 C.3   254  LEU254      0.0001
    146  CD2       -4.5870  -40.7100   26.3680 C.3   254  LEU254      0.0001
@<TRIPOS>BOND
     1    89    88    2
     2    88    87    1
     3    82    81    2
     4    87    90    1
     5    87    86    1
     6    90    91    1
     7    74    73    2
     8    95    94    1
     9    81    86   am
    10    81    80    1
    11    46    45    1
    12    91    92    1
    13    73    72    1
    14    73    79   am
    15    65    64    1
    16    65    68    1
    17    65    66    1
    18    71    72    1
    19    71    66   am
    20    92    93    1
    21    69    68    1
    22    80    79    1
    23    80    83    1
    24    75    72    1
    25    75    76    1
    26    47    45    1
    27    94    93    2
    28    94    96    1
    29    45    42    1
    30    68    70    1
    31    66    67    2
    32    44    43    2
    33     4     3    2
    34    76    77   ar
    35    76    78   ar
    36    83    85    1
    37    83    84    1
    38    42    43    1
    39    42    41    1
    40    43    48   am
    41     3     2    1
    42    51    50    2
    43    41    39   am
    44    48    49    1
    45     5     2    1
    46     5     6    1
    47    50    49    1
    48    50    52   am
    49     2     1    1
    50    39    40    2
    51    39    38    1
    52    53    52    1
    53    53    54    1
    54    53    56    1
    55    55    54    2
    56    58    56    1
    57    37    38    1
    58    37    28   am
    59     6     7    1
    60    54    59   am
    61    56    57    1
    62    26    27    1
    63    27    28    1
    64    27    30    1
    65     7     8    1
    66    10     9    1
    67    28    29    2
    68    35    33   ar
    69    35    36   ar
    70    62    61    2
    71    33    31   ar
    72    61    60    1
    73    59    60    1
    74    36    34   ar
    75    31    30    1
    76    31    32   ar
    77    34    32   ar
    78     9     8    2
    79     9    11    1
    80    60    63    1
    81   102   101    1
    82   145   144    1
    83   103   101    1
    84   146   144    1
    85   101    98    1
    86   108   105    1
    87   142   141    2
    88   144   143    1
    89    23    22    2
    90   143   140    1
    91    22    21    1
    92   105   104    1
    93   105   106    1
    94    24    21    1
    95    24    25    1
    96    97    98    1
    97   104    99   am
    98    99    98    1
    99    99   100    2
   100    14    15    2
   101    14    13    1
   102   140   141    1
   103   140   139    1
   104   112   111    2
   105    21    20    1
   106    16    13    1
   107    16    17    1
   108   109   106   am
   109   109   110    1
   110   137   136    1
   111   137   138    1
   112   106   107    2
   113   124   122    1
   114   122   121    1
   115    13    12    1
   116   136   133    1
   117    19    17    1
   118   111   110    1
   119   111   117   am
   120    17    18    1
   121   110   113    1
   122   131   130    1
   123   131   125    1
   124   123   121    1
   125   113   114    1
   126   130   129    1
   127   121   118    1
   128   138   132    1
   129   118   117    1
   130   118   119    1
   131   133   134    1
   132   133   132    1
   133   135   134    2
   134   125   119   am
   135   125   126    1
   136   129   126    1
   137   119   120    2
   138   114   116    1
   139   114   115    1
   140   126   127    1
   141   128   127    2
