@<TRIPOS>MOLECULE
tmp/1u29A00.pdb
 117 109 0 0 0
SMALL
GASTEIGER

@<TRIPOS>ATOM
      1  N         17.4150   27.6240    4.6650 N.3     9  LYS9       -0.1245
      2  CA        16.5740   26.4450    4.8060 C.3     9  LYS9        0.1561
      3  C         15.8650   26.1380    3.4890 C.2     9  LYS9        0.2260
      4  O         15.3110   27.0220    2.8610 O.2     9  LYS9       -0.2867
      5  CB        15.5320   26.6720    5.9140 C.3     9  LYS9        0.0271
      6  CG        14.3990   25.6360    5.9430 C.3     9  LYS9        0.0035
      7  CD        13.2190   26.0110    6.8450 C.3     9  LYS9        0.0206
      8  CE        12.5750   27.3600    6.5410 C.3     9  LYS9        0.1093
      9  NZ        11.5770   27.3030    5.4080 N.3     9  LYS9       -0.1314
     10  N         12.7000   24.7420    1.5260 N.3    11  GLY11      -0.1210
     11  CA        11.2910   24.5370    1.7390 C.3    11  GLY11       0.1956
     12  C         10.8690   23.0830    1.6470 C.2    11  GLY11       0.2612
     13  O         11.6290   22.2180    1.2130 O.2    11  GLY11      -0.2717
     14  N          9.6490   22.8060    2.0830 N.am   12  GLY12      -0.1942
     15  CA         9.1370   21.4510    2.1120 C.3    12  GLY12       0.2014
     16  C          8.0250   21.1420    1.1340 C.2    12  GLY12       0.2639
     17  O          7.5500   19.9970    1.0770 O.2    12  GLY12      -0.2714
     18  N          7.6240   22.1460    0.3650 N.am   13  GLY13      -0.1954
     19  CA         6.4630   22.0540   -0.5060 C.3    13  GLY13       0.1869
     20  C          6.7800   21.6380   -1.9320 C.2    13  GLY13       0.2309
     21  O          7.8150   21.0190   -2.1940 O.2    13  GLY13      -0.2863
     22  N          7.4000   23.4610   -4.7660 N.3    15  VAL15      -0.1245
     23  CA         8.5510   24.1540   -5.3340 C.3    15  VAL15       0.1561
     24  C          9.4840   24.4830   -4.1810 C.2    15  VAL15       0.2260
     25  O          9.2720   25.4530   -3.4260 O.2    15  VAL15      -0.2867
     26  CB         8.1540   25.4290   -6.1120 C.3    15  VAL15       0.0252
     27  CG1        9.3460   26.0010   -6.8640 C.3    15  VAL15       0.0019
     28  CG2        7.0180   25.1310   -7.0620 C.3    15  VAL15       0.0019
     29  N         12.4990   25.8920   -2.4550 N.3    17  THR17      -0.1218
     30  CA        13.4930   26.9540   -2.5840 C.3    17  THR17       0.1862
     31  C         14.1530   27.2480   -1.2460 C.2    17  THR17       0.2287
     32  O         13.6330   26.8970   -0.1910 O.2    17  THR17      -0.2866
     33  CB        12.8660   28.2480   -3.1280 C.3    17  THR17       0.1770
     34  OG1       11.9970   28.8380   -2.1450 O.3    17  THR17      -0.2211
     35  CG2       11.9580   27.9310   -4.2980 C.3    17  THR17       0.0375
     36  N         15.5340   29.7550    1.6550 N.3    19  LYS19      -0.1245
     37  CA        15.2380   31.0130    2.3350 C.3    19  LYS19       0.1561
     38  C         16.2160   31.1890    3.5010 C.2    19  LYS19       0.2260
     39  O         16.4780   30.2460    4.2350 O.2    19  LYS19      -0.2867
     40  CB        13.8140   31.0310    2.8990 C.3    19  LYS19       0.0271
     41  CG        12.6810   30.9110    1.8820 C.3    19  LYS19       0.0035
     42  CD        12.4830   32.1910    1.0850 C.3    19  LYS19       0.0206
     43  CE        11.2200   32.1340    0.1810 C.3    19  LYS19       0.1093
     44  NZ        10.0070   32.8400    0.7310 N.3    19  LYS19      -0.1314
     45  N         16.9730   32.2620    7.1030 N.3    21  ARG21      -0.1245
     46  CA        16.2990   32.5200    8.3710 C.3    21  ARG21       0.1563
     47  C         17.3190   32.5840    9.4920 C.2    21  ARG21       0.2260
     48  O         18.4070   32.0160    9.3900 O.2    21  ARG21      -0.2867
     49  CB        15.2900   31.4080    8.6550 C.3    21  ARG21       0.0307
     50  CG        14.2530   31.2340    7.5340 C.3    21  ARG21       0.0489
     51  CD        13.1770   32.2670    7.5990 C.3    21  ARG21       0.2205
     52  NE        12.2390   32.2250    6.4740 N.pl3  21  ARG21      -0.0865
     53  CZ        12.1940   33.1160    5.4790 C.cat  21  ARG21       0.5346
     54  NH1       13.0570   34.1180    5.4070 N.pl3  21  ARG21       0.1354
     55  NH2       11.2630   33.0060    4.5360 N.pl3  21  ARG21       0.1354
     56  N         13.5140   29.0400   14.2430 N.3    32  TYR32      -0.1241
     57  CA        13.9780   30.0440   13.2980 C.3    32  TYR32       0.1605
     58  C         13.0170   31.2350   13.2130 C.2    32  TYR32       0.2264
     59  O         11.8430   31.1170   13.5130 O.2    32  TYR32      -0.2867
     60  CB        14.2700   29.4220   11.9330 C.3    32  TYR32       0.0534
     61  CG        13.0670   29.0150   11.1230 C.ar   32  TYR32      -0.0201
     62  CD1       12.3730   29.9590   10.3570 C.ar   32  TYR32      -0.0009
     63  CD2       12.6500   27.6850   11.0660 C.ar   32  TYR32      -0.0009
     64  CE1       11.2910   29.6040    9.5890 C.ar   32  TYR32       0.0417
     65  CE2       11.5440   27.3150   10.2970 C.ar   32  TYR32       0.0417
     66  CZ        10.8750   28.2810    9.5610 C.ar   32  TYR32       0.1957
     67  OH         9.7960   27.9220    8.7920 O.3    32  TYR32      -0.2866
     68  N          9.1140   31.9920   13.6850 N.3    42  ARG42      -0.1245
     69  CA         8.3360   31.5860   12.5420 C.3    42  ARG42       0.1563
     70  C          8.2130   30.0670   12.4820 C.2    42  ARG42       0.2260
     71  O          7.2270   29.5560   11.9810 O.2    42  ARG42      -0.2867
     72  CB         8.9530   32.1160   11.2490 C.3    42  ARG42       0.0307
     73  CG         8.0250   31.9700   10.0590 C.3    42  ARG42       0.0489
     74  CD         8.4500   32.7470    8.8380 C.3    42  ARG42       0.2205
     75  NE         7.9570   34.1220    8.8450 N.pl3  42  ARG42      -0.0865
     76  CZ         8.1830   34.9990    7.8760 C.cat  42  ARG42       0.5346
     77  NH1        8.8720   34.6560    6.7910 N.pl3  42  ARG42       0.1354
     78  NH2        7.7070   36.2310    7.9810 N.pl3  42  ARG42       0.1354
     79  N          5.0070   25.9630   12.1980 N.3    80  LYS80      -0.1245
     80  CA         5.4140   26.9880   11.2450 C.3    80  LYS80       0.1561
     81  C          4.3040   28.0260   11.1980 C.2    80  LYS80       0.2260
     82  O          3.1310   27.6670   11.2280 O.2    80  LYS80      -0.2867
     83  CB         5.6380   26.3690    9.8680 C.3    80  LYS80       0.0271
     84  CG         6.1370   27.3450    8.8240 C.3    80  LYS80       0.0035
     85  CD         4.9820   27.8840    7.9860 C.3    80  LYS80       0.0206
     86  CE         5.4830   28.7860    6.8970 C.3    80  LYS80       0.1093
     87  NZ         6.4210   28.0170    6.0710 N.3    80  LYS80      -0.1314
     88  N          5.6070   20.7630    7.1480 N.3    91  ASN91      -0.1225
     89  CA         5.2780   19.8770    6.0310 C.3    91  ASN91       0.1785
     90  C          6.4520   18.9870    5.6420 C.2    91  ASN91       0.2597
     91  O          6.4230   18.3640    4.5960 O.2    91  ASN91      -0.2718
     92  CB         4.7810   20.6970    4.8130 C.3    91  ASN91       0.1169
     93  CG         5.8190   21.7030    4.2750 C.2    91  ASN91       0.2627
     94  OD1        6.9520   21.7820    4.7450 O.2    91  ASN91      -0.2716
     95  ND2        5.4160   22.4740    3.2760 N.am   91  ASN91      -0.0877
     96  N          7.4620   18.9110    6.5110 N.am   92  HIS92      -0.1975
     97  CA         8.7800   18.3730    6.1420 C.3    92  HIS92       0.1656
     98  C          8.9930   16.8980    6.4850 C.2    92  HIS92       0.2291
     99  O          8.6880   16.4660    7.5720 O.2    92  HIS92      -0.2864
    100  CB         9.8940   19.1390    6.8700 C.3    92  HIS92       0.0771
    101  CG        10.2090   20.4700    6.2740 C.ar   92  HIS92       0.0820
    102  ND1       11.3420   20.6980    5.5290 N.ar   92  HIS92      -0.2267
    103  CD2        9.5530   21.6490    6.3360 C.ar   92  HIS92       0.1154
    104  CE1       11.3680   21.9610    5.1500 C.ar   92  HIS92       0.1986
    105  NE2       10.2880   22.5590    5.6130 N.ar   92  HIS92      -0.2212
    106  N         14.5620   18.4360    7.0990 N.3    95  TYR95      -0.1241
    107  CA        15.0310   19.8010    6.9560 C.3    95  TYR95       0.1605
    108  C         16.4470   19.8090    6.4130 C.2    95  TYR95       0.2264
    109  O         17.3910   19.4470    7.1020 O.2    95  TYR95      -0.2867
    110  CB        14.9630   20.5750    8.2820 C.3    95  TYR95       0.0534
    111  CG        13.5490   20.8280    8.7140 C.ar   95  TYR95      -0.0201
    112  CD1       12.8250   19.8530    9.4050 C.ar   95  TYR95      -0.0009
    113  CD2       12.9200   22.0290    8.4310 C.ar   95  TYR95      -0.0009
    114  CE1       11.5280   20.0580    9.7810 C.ar   95  TYR95       0.0417
    115  CE2       11.6130   22.2440    8.8090 C.ar   95  TYR95       0.0417
    116  CZ        10.9190   21.2610    9.4860 C.ar   95  TYR95       0.1957
    117  OH         9.6070   21.4670    9.8690 O.3    95  TYR95      -0.2866
@<TRIPOS>BOND
     1    28    26    1
     2    27    26    1
     3    26    23    1
     4    23    22    1
     5    23    24    1
     6    35    33    1
     7    24    25    2
     8    33    30    1
     9    33    34    1
    10    30    29    1
    11    30    31    1
    12    21    20    2
    13    20    19    1
    14    31    32    2
    15    19    18    1
    16    43    44    1
    17    43    42    1
    18    18    16   am
    19    17    16    2
    20    42    41    1
    21    16    15    1
    22    13    12    2
    23    10    11    1
    24    12    11    1
    25    12    14   am
    26    36    37    1
    27    41    40    1
    28    14    15    1
    29    37    40    1
    30    37    38    1
    31     4     3    2
    32    95    93   am
    33     3     2    1
    34    38    39    2
    35    93    94    2
    36    93    92    1
    37    55    53    1
    38    91    90    2
    39     1     2    1
    40     2     5    1
    41    92    89    1
    42   104   102   ar
    43   104   105   ar
    44    54    53    1
    45     9     8    1
    46    53    52    2
    47   102   101   ar
    48   105   103   ar
    49    90    89    1
    50    90    96   am
    51     5     6    1
    52     6     7    1
    53    89    88    1
    54    87    86    1
    55    97    98    1
    56    97    96    1
    57    97   100    1
    58   101   103   ar
    59   101   100    1
    60   108   107    1
    61   108   109    2
    62    52    51    1
    63    98    99    2
    64     8     7    1
    65    77    76    1
    66    86    85    1
    67   107   106    1
    68   107   110    1
    69    45    46    1
    70    50    51    1
    71    50    49    1
    72    76    78    1
    73    76    75    2
    74    85    84    1
    75   110   111    1
    76    46    49    1
    77    46    47    1
    78   113   111   ar
    79   113   115   ar
    80   111   112   ar
    81    67    66    1
    82   115   116   ar
    83    84    83    1
    84    74    75    1
    85    74    73    1
    86    48    47    2
    87   112   114   ar
    88   116   114   ar
    89   116   117    1
    90    66    64   ar
    91    66    65   ar
    92    64    62   ar
    93    83    80    1
    94    73    72    1
    95    65    63   ar
    96    62    61   ar
    97    63    61   ar
    98    61    60    1
    99    81    82    2
   100    81    80    1
   101    80    79    1
   102    72    69    1
   103    60    57    1
   104    71    70    2
   105    70    69    1
   106    69    68    1
   107    58    57    1
   108    58    59    2
   109    57    56    1
