@<TRIPOS>MOLECULE
tmp/1u2gB00.pdb
 156 148 0 0 0
SMALL
GASTEIGER

@<TRIPOS>ATOM
      1  N        -28.5630  -44.2150   22.9940 N.3   127  ARG127     -0.1245
      2  CA       -27.9240  -43.4050   21.9680 C.3   127  ARG127      0.1563
      3  C        -28.6310  -43.5980   20.6270 C.2   127  ARG127      0.2260
      4  O        -28.1060  -44.2300   19.7090 O.2   127  ARG127     -0.2867
      5  CB       -26.4350  -43.7540   21.8900 C.3   127  ARG127      0.0307
      6  CG       -25.7080  -43.5130   23.2150 C.3   127  ARG127      0.0489
      7  CD       -24.3620  -44.2200   23.3060 C.3   127  ARG127      0.2205
      8  NE       -23.2730  -43.4370   22.7120 N.pl3 127  ARG127     -0.0865
      9  CZ       -22.5570  -43.7840   21.6370 C.cat 127  ARG127      0.5346
     10  NH1      -21.5910  -42.9730   21.2080 N.pl3 127  ARG127      0.1354
     11  NH2      -22.7800  -44.9270   20.9870 N.pl3 127  ARG127      0.1354
     12  N        -25.5580  -36.0390   28.8770 N.3   137  LEU137     -0.1245
     13  CA       -24.1250  -36.2320   28.6460 C.3   137  LEU137      0.1561
     14  C        -23.6180  -35.2530   27.5830 C.2   137  LEU137      0.2260
     15  O        -22.5730  -34.6280   27.7510 O.2   137  LEU137     -0.2867
     16  CB       -23.8290  -37.6840   28.2390 C.3   137  LEU137      0.0270
     17  CG       -23.3530  -38.6770   29.3120 C.3   137  LEU137      0.0019
     18  CD1      -23.9600  -38.4310   30.6870 C.3   137  LEU137      0.0001
     19  CD2      -23.6140  -40.1210   28.8530 C.3   137  LEU137      0.0001
     20  N        -21.4090  -31.8350   28.7870 N.3   141  SER141     -0.1217
     21  CA       -20.0130  -31.9560   28.3460 C.3   141  SER141      0.1889
     22  C        -19.6460  -30.9710   27.2290 C.2   141  SER141      0.2288
     23  O        -18.4820  -30.5930   27.0900 O.2   141  SER141     -0.2866
     24  CB       -19.7220  -33.3780   27.8760 C.3   141  SER141      0.2089
     25  OG       -20.3700  -33.6280   26.6430 O.3   141  SER141     -0.2183
     26  N         -6.5720  -33.4210   23.4070 N.3   178  PHE178     -0.1227
     27  CA        -6.5980  -34.8830   23.4830 C.3   178  PHE178      0.1736
     28  C         -8.0280  -35.3480   23.7390 C.2   178  PHE178      0.2596
     29  O         -8.6410  -34.9610   24.7360 O.2   178  PHE178     -0.2718
     30  CB        -5.7080  -35.3870   24.6160 C.3   178  PHE178      0.0547
     31  CG        -4.2480  -35.1070   24.4240 C.ar  178  PHE178     -0.0202
     32  CD1       -3.7210  -33.8580   24.7210 C.ar  178  PHE178     -0.0042
     33  CD2       -3.3870  -36.1050   23.9770 C.ar  178  PHE178     -0.0042
     34  CE1       -2.3600  -33.6000   24.5620 C.ar  178  PHE178     -0.0003
     35  CE2       -2.0270  -35.8520   23.8140 C.ar  178  PHE178     -0.0003
     36  CZ        -1.5160  -34.5940   24.1090 C.ar  178  PHE178     -0.0000
     37  N         -8.5500  -36.1860   22.8480 N.am  179  GLY179     -0.1957
     38  CA        -9.9280  -36.6520   22.9390 C.3   179  GLY179      0.1869
     39  C        -10.8410  -35.7210   22.1660 C.2   179  GLY179      0.2309
     40  O        -10.9930  -34.5490   22.5240 O.2   179  GLY179     -0.2863
     41  N        -14.3140  -36.0880   21.4210 N.3   181  GLY181     -0.1210
     42  CA       -15.7510  -36.2820   21.5800 C.3   181  GLY181      0.1956
     43  C        -16.4190  -34.9230   21.6800 C.2   181  GLY181      0.2612
     44  O        -15.8710  -33.9250   21.2110 O.2   181  GLY181     -0.2717
     45  N        -17.5870  -34.8730   22.3130 N.am  182  VAL182     -0.1965
     46  CA       -18.3960  -33.6450   22.3550 C.3   182  VAL182      0.1727
     47  C        -17.6260  -32.4690   22.9610 C.2   182  VAL182      0.2616
     48  O        -17.5290  -31.4070   22.3480 O.2   182  VAL182     -0.2715
     49  CB       -19.7250  -33.8600   23.1280 C.3   182  VAL182      0.0290
     50  CG1      -20.4490  -32.5410   23.3440 C.3   182  VAL182      0.0023
     51  CG2      -20.6270  -34.8290   22.3760 C.3   182  VAL182      0.0023
     52  N        -17.0910  -32.6680   24.1630 N.am  183  ALA183     -0.1977
     53  CA       -16.2750  -31.6560   24.8360 C.3   183  ALA183      0.1597
     54  C        -15.0600  -31.2490   23.9940 C.2   183  ALA183      0.2287
     55  O        -14.7710  -30.0630   23.8450 O.2   183  ALA183     -0.2864
     56  CB       -15.8180  -32.1710   26.1950 C.3   183  ALA183      0.0319
     57  N        -14.5790  -31.4330   20.7340 N.3   185  LEU185     -0.1245
     58  CA       -14.9590  -30.6750   19.5430 C.3   185  LEU185      0.1561
     59  C        -15.2630  -29.2060   19.8550 C.2   185  LEU185      0.2260
     60  O        -14.8590  -28.3160   19.1050 O.2   185  LEU185     -0.2867
     61  CB       -16.1500  -31.3370   18.8370 C.3   185  LEU185      0.0270
     62  CG       -15.8330  -32.6610   18.1320 C.3   185  LEU185      0.0019
     63  CD1      -17.1100  -33.3920   17.7410 C.3   185  LEU185      0.0001
     64  CD2      -14.9600  -32.4320   16.9090 C.3   185  LEU185      0.0001
     65  N         -5.7920  -35.0470   18.7300 N.3   201  THR201     -0.1203
     66  CA        -5.5740  -36.4780   18.5350 C.3   201  THR201      0.1994
     67  C         -6.6590  -37.2850   19.2390 C.2   201  THR201      0.2618
     68  O         -7.2710  -36.8190   20.2010 O.2   201  THR201     -0.2717
     69  CB        -4.1830  -36.9260   19.0460 C.3   201  THR201      0.1784
     70  OG1       -3.9750  -38.3090   18.7300 O.3   201  THR201     -0.2211
     71  CG2       -4.0540  -36.7200   20.5570 C.3   201  THR201      0.0376
     72  N         -6.8810  -38.4990   18.7480 N.am  202  ASP202     -0.1959
     73  CA        -7.9000  -39.3950   19.2870 C.3   202  ASP202      0.1840
     74  C         -7.7110  -40.7800   18.6610 C.2   202  ASP202      0.2622
     75  O         -7.1940  -40.8960   17.5490 O.2   202  ASP202     -0.2715
     76  CB        -9.2900  -38.8380   18.9740 C.3   202  ASP202      0.1450
     77  CG       -10.4030  -39.5530   19.7150 C.2   202  ASP202      0.3671
     78  OD1      -10.4900  -40.7920   19.6170 O.co2 202  ASP202     -0.2456
     79  OD2      -11.2120  -38.8650   20.3760 O.co2 202  ASP202     -0.2456
     80  N         -8.1190  -41.8220   19.3820 N.am  203  VAL203     -0.1963
     81  CA        -7.9860  -43.1980   18.8920 C.3   203  VAL203      0.1727
     82  C         -8.9710  -43.5380   17.7680 C.2   203  VAL203      0.2616
     83  O         -8.6400  -44.3190   16.8790 O.2   203  VAL203     -0.2715
     84  CB        -8.1200  -44.2460   20.0330 C.3   203  VAL203      0.0290
     85  CG1       -6.9790  -44.0900   21.0240 C.3   203  VAL203      0.0023
     86  CG2       -9.4820  -44.1480   20.7420 C.3   203  VAL203      0.0023
     87  N        -10.1680  -42.9510   17.8050 N.am  204  ARG204     -0.1977
     88  CA       -11.2010  -43.2400   16.8030 C.3   204  ARG204      0.1597
     89  C        -10.8750  -42.5940   15.4530 C.2   204  ARG204      0.2287
     90  O        -10.4800  -41.4320   15.3940 O.2   204  ARG204     -0.2864
     91  CB       -12.5770  -42.7880   17.3020 C.3   204  ARG204      0.0334
     92  CG       -13.0190  -43.5130   18.5660 C.3   204  ARG204      0.0492
     93  CD       -14.4900  -43.2860   18.9060 C.3   204  ARG204      0.2205
     94  NE       -14.8040  -41.8920   19.2370 N.pl3 204  ARG204     -0.0865
     95  CZ       -15.4030  -41.0190   18.4230 C.cat 204  ARG204      0.5346
     96  NH1      -15.7770  -41.3580   17.1900 N.pl3 204  ARG204      0.1354
     97  NH2      -15.6370  -39.7840   18.8490 N.pl3 204  ARG204      0.1354
     98  N        -13.6320  -34.9360   11.6440 N.3   210  GLN210     -0.1245
     99  CA       -14.3660  -34.0250   12.5300 C.3   210  GLN210      0.1566
    100  C        -13.4790  -32.8700   12.9880 C.2   210  GLN210      0.2260
    101  O        -13.9150  -31.7170   13.0050 O.2   210  GLN210     -0.2867
    102  CB       -14.9310  -34.7830   13.7390 C.3   210  GLN210      0.0367
    103  CG       -15.8630  -35.9370   13.3530 C.3   210  GLN210      0.0905
    104  CD       -16.5460  -36.6060   14.5380 C.2   210  GLN210      0.2608
    105  OE1      -17.3710  -37.5020   14.3570 O.2   210  GLN210     -0.2717
    106  NE2      -16.2080  -36.1800   15.7480 N.am  210  GLN210     -0.0878
    107  N         -9.5510  -34.6600   27.3610 N.3   242  THR242     -0.1203
    108  CA       -10.9760  -34.9400   27.5500 C.3   242  THR242      0.1994
    109  C        -11.3300  -36.4340   27.4900 C.2   242  THR242      0.2618
    110  O        -12.5060  -36.7860   27.4700 O.2   242  THR242     -0.2717
    111  CB       -11.8140  -34.2220   26.4610 C.3   242  THR242      0.1784
    112  OG1      -11.6600  -34.8980   25.2050 O.3   242  THR242     -0.2211
    113  CG2      -11.3800  -32.7730   26.3050 C.3   242  THR242      0.0376
    114  N        -10.3270  -37.3070   27.4690 N.am  243  ALA243     -0.1965
    115  CA       -10.5590  -38.7320   27.2120 C.3   243  ALA243      0.1728
    116  C        -11.0290  -39.4860   28.4520 C.2   243  ALA243      0.2616
    117  O        -10.3160  -39.5450   29.4510 O.2   243  ALA243     -0.2715
    118  CB        -9.2990  -39.3780   26.6610 C.3   243  ALA243      0.0334
    119  N        -12.2320  -40.0550   28.3820 N.am  244  LEU244     -0.1963
    120  CA       -12.7140  -40.9710   29.4190 C.3   244  LEU244      0.1728
    121  C        -13.3680  -42.2200   28.8320 C.2   244  LEU244      0.2616
    122  O        -13.6250  -42.3010   27.6240 O.2   244  LEU244     -0.2715
    123  CB       -13.6760  -40.2750   30.3910 C.3   244  LEU244      0.0311
    124  CG       -14.7660  -39.3510   29.8460 C.3   244  LEU244      0.0022
    125  CD1      -16.1460  -39.7830   30.3380 C.3   244  LEU244      0.0001
    126  CD2      -14.4800  -37.9020   30.2300 C.3   244  LEU244      0.0001
    127  N        -13.5850  -43.2090   29.7020 N.am  245  ILE245     -0.1964
    128  CA       -14.3070  -44.4370   29.3640 C.3   245  ILE245      0.1712
    129  C        -15.1650  -44.8220   30.5780 C.2   245  ILE245      0.2458
    130  O        -14.6290  -45.3290   31.5640 O.2   245  ILE245     -0.2730
    131  CB       -13.3500  -45.6040   29.0200 C.3   245  ILE245      0.0289
    132  CG1      -12.2040  -45.1310   28.1110 C.3   245  ILE245      0.0022
    133  CG2      -14.1310  -46.7390   28.3610 C.3   245  ILE245      0.0023
    134  CD1      -11.1440  -46.1840   27.8410 C.3   245  ILE245      0.0001
    135  N        -16.4910  -44.5630   30.5200 N.am  246  PRO246     -0.2727
    136  CA       -17.4090  -44.7740   31.6530 C.3   246  PRO246      0.1402
    137  C        -17.1860  -46.0610   32.4590 C.2   246  PRO246      0.2269
    138  O        -16.9930  -47.1340   31.8800 O.2   246  PRO246     -0.2865
    139  CB       -18.7830  -44.8010   30.9790 C.3   246  PRO246      0.0296
    140  CG       -18.6370  -43.8800   29.8290 C.3   246  PRO246      0.0237
    141  CD       -17.2090  -44.0240   29.3470 C.3   246  PRO246      0.0939
    142  N         -7.6910  -42.8520   30.6960 N.3   251  PRO251     -0.2116
    143  CA        -6.4060  -43.2810   30.1510 C.3   251  PRO251      0.1372
    144  C         -5.3410  -42.2000   30.3070 C.2   251  PRO251      0.2244
    145  O         -5.6410  -41.0140   30.1520 O.2   251  PRO251     -0.2868
    146  CB        -6.7170  -43.5180   28.6700 C.3   251  PRO251      0.0268
    147  CG        -7.8530  -42.6150   28.3780 C.3   251  PRO251      0.0207
    148  CD        -8.6670  -42.5510   29.6330 C.3   251  PRO251      0.0892
    149  N         -2.6640  -40.0210   29.0310 N.3   253  LEU253     -0.1245
    150  CA        -2.2740  -39.4860   27.7230 C.3   253  LEU253      0.1561
    151  C         -1.0910  -38.5210   27.7960 C.2   253  LEU253      0.2260
    152  O         -0.3700  -38.3540   26.8120 O.2   253  LEU253     -0.2867
    153  CB        -3.4640  -38.7750   27.0740 C.3   253  LEU253      0.0270
    154  CG        -4.7490  -39.5910   26.9310 C.3   253  LEU253      0.0019
    155  CD1       -5.8040  -38.7670   26.2320 C.3   253  LEU253      0.0001
    156  CD2       -4.5120  -40.8900   26.1750 C.3   253  LEU253      0.0001
@<TRIPOS>BOND
     1    98    99    1
     2    99   100    1
     3    99   102    1
     4   100   101    2
     5   103   102    1
     6   103   104    1
     7   105   104    2
     8   104   106   am
     9    90    89    2
    10    89    88    1
    11    88    91    1
    12    88    87    1
    13    83    82    2
    14    64    62    1
    15    96    95    1
    16    91    92    1
    17    75    74    2
    18    63    62    1
    19    82    87   am
    20    82    81    1
    21    62    61    1
    22    95    97    1
    23    95    94    2
    24    66    65    1
    25    66    69    1
    26    66    67    1
    27    92    93    1
    28    74    73    1
    29    74    80   am
    30    70    69    1
    31    72    67   am
    32    72    73    1
    33    61    58    1
    34    81    80    1
    35    81    84    1
    36    93    94    1
    37    76    73    1
    38    76    77    1
    39    69    71    1
    40    60    59    2
    41    67    68    2
    42    58    59    1
    43    58    57    1
    44    78    77   ar
    45     4     3    2
    46    77    79   ar
    47    84    86    1
    48    84    85    1
    49     3     2    1
    50    11     9    1
    51    10     9    1
    52    44    43    2
    53    41    42    1
    54    42    43    1
    55     9     8    2
    56    43    45   am
    57     5     2    1
    58     5     6    1
    59     2     1    1
    60    39    40    2
    61    39    38    1
    62    45    46    1
    63    48    47    2
    64    46    47    1
    65    46    49    1
    66    51    49    1
    67     8     7    1
    68    37    38    1
    69    37    28   am
    70    47    52   am
    71    49    50    1
    72     6     7    1
    73    26    27    1
    74    27    28    1
    75    27    30    1
    76    28    29    2
    77    35    33   ar
    78    35    36   ar
    79    55    54    2
    80    33    31   ar
    81    54    53    1
    82    36    34   ar
    83    52    53    1
    84    31    30    1
    85    31    32   ar
    86    34    32   ar
    87    53    56    1
    88   112   111    1
    89   156   154    1
    90   155   154    1
    91   113   111    1
    92   111   108    1
    93    25    24    1
    94   118   115    1
    95   152   151    2
    96   154   153    1
    97   153   150    1
    98    23    22    2
    99   115   114    1
   100   115   116    1
   101    22    21    1
   102   107   108    1
   103   114   109   am
   104   110   109    2
   105   109   108    1
   106    14    15    2
   107    14    13    1
   108   122   121    2
   109   150   151    1
   110   150   149    1
   111   134   132    1
   112    24    21    1
   113   132   131    1
   114    16    13    1
   115    16    17    1
   116    21    20    1
   117   133   131    1
   118   147   146    1
   119   147   148    1
   120   119   116   am
   121   119   120    1
   122   116   117    2
   123    13    12    1
   124   146   143    1
   125   121   120    1
   126   121   127   am
   127    19    17    1
   128   131   128    1
   129    17    18    1
   130   141   140    1
   131   141   135    1
   132   128   127    1
   133   128   129    1
   134   120   123    1
   135   148   142    1
   136   140   139    1
   137   124   126    1
   138   124   125    1
   139   124   123    1
   140   143   144    1
   141   143   142    1
   142   145   144    2
   143   135   129   am
   144   135   136    1
   145   129   130    2
   146   139   136    1
   147   136   137    1
   148   138   137    2
