@<TRIPOS>MOLECULE
tmp/1u2sA00.pdb
 87 77 0 0 0
SMALL
GASTEIGER

@<TRIPOS>ATOM
      1  N         47.7060    6.0100  102.1770 N.3    11  ASP11      -0.1239
      2  CA        47.7600    4.6790  102.7660 C.3    11  ASP11       0.1674
      3  C         49.1660    4.2340  103.1710 C.2    11  ASP11       0.2266
      4  O         50.1000    4.2660  102.3650 O.2    11  ASP11      -0.2867
      5  CB        47.1620    3.6480  101.8060 C.3    11  ASP11       0.1410
      6  CG        45.7420    3.9860  101.3980 C.2    11  ASP11       0.3668
      7  OD1       45.5590    4.7970  100.4670 O.co2  11  ASP11      -0.2456
      8  OD2       44.8040    3.4510  102.0190 O.co2  11  ASP11      -0.2456
      9  N         47.3760    6.6630   95.2360 N.3    42  GLY42      -0.1210
     10  CA        47.0910    5.7460   94.1510 C.3    42  GLY42       0.1956
     11  C         45.5850    5.6310   93.9940 C.2    42  GLY42       0.2611
     12  O         45.0940    5.0940   93.0050 O.2    42  GLY42      -0.2717
     13  N         44.8530    6.1420   94.9790 N.am   43  ARG43      -0.1979
     14  CA        43.3930    6.1100   94.9680 C.3    43  ARG43       0.1597
     15  C         42.7980    7.1320   94.0100 C.2    43  ARG43       0.2287
     16  O         43.4360    8.1280   93.6570 O.2    43  ARG43      -0.2864
     17  CB        42.8350    6.4110   96.3630 C.3    43  ARG43       0.0334
     18  CG        43.1460    5.3840   97.4270 C.3    43  ARG43       0.0492
     19  CD        42.6180    5.8490   98.7760 C.3    43  ARG43       0.2205
     20  NE        42.7550    4.8340   99.8160 N.pl3  43  ARG43      -0.0865
     21  CZ        41.7410    4.3680  100.5430 C.cat  43  ARG43       0.5346
     22  NH1       40.5100    4.8190  100.3440 N.pl3  43  ARG43       0.1354
     23  NH2       41.9580    3.4570  101.4800 N.pl3  43  ARG43       0.1354
     24  N         47.7960    7.8200   91.1960 N.3    67  VAL67      -0.1245
     25  CA        49.2220    7.8480   90.9030 C.3    67  VAL67       0.1561
     26  C         49.5800    9.0480   90.0320 C.2    67  VAL67       0.2260
     27  O         50.4230    8.9540   89.1380 O.2    67  VAL67      -0.2867
     28  CB        49.6640    6.5590   90.1860 C.3    67  VAL67       0.0252
     29  CG1       51.1800    6.4650   90.1830 C.3    67  VAL67       0.0019
     30  CG2       49.0590    5.3540   90.8700 C.3    67  VAL67       0.0019
     31  N         42.1560   -4.9330   87.6780 N.3   107  GLN107     -0.1245
     32  CA        41.6360   -4.4750   88.9590 C.3   107  GLN107      0.1566
     33  C         40.2260   -4.0040   88.6390 C.2   107  GLN107      0.2260
     34  O         39.8720   -3.8660   87.4640 O.2   107  GLN107     -0.2867
     35  CB        42.4710   -3.3160   89.5100 C.3   107  GLN107      0.0367
     36  CG        43.8030   -3.7470   90.1030 C.3   107  GLN107      0.0905
     37  CD        44.5750   -2.5890   90.7150 C.2   107  GLN107      0.2608
     38  OE1       43.9880   -1.6540   91.2540 O.2   107  GLN107     -0.2717
     39  NE2       45.8970   -2.6600   90.6500 N.am  107  GLN107     -0.0878
     40  N         38.9630    1.4250   89.6150 N.3   111  GLU111     -0.1245
     41  CA        40.3850    1.7100   89.8080 C.3   111  GLU111      0.1567
     42  C         40.9870    2.1890   88.4940 C.2   111  GLU111      0.2260
     43  O         42.1480    2.5940   88.4470 O.2   111  GLU111     -0.2867
     44  CB        41.1410    0.4560   90.2520 C.3   111  GLU111      0.0388
     45  CG        40.7040   -0.1070   91.5830 C.3   111  GLU111      0.1160
     46  CD        40.9300    0.8600   92.7230 C.2   111  GLU111      0.3649
     47  OE1       40.6270    0.4890   93.8750 O.co2 111  GLU111     -0.2457
     48  OE2       41.4090    1.9880   92.4730 O.co2 111  GLU111     -0.2457
     49  N         45.0020    5.4490   83.1830 N.3   116  LYS116     -0.1245
     50  CA        45.4710    4.4610   84.1430 C.3   116  LYS116      0.1561
     51  C         44.8510    3.0810   83.9290 C.2   116  LYS116      0.2260
     52  O         43.6350    2.9100   84.0340 O.2   116  LYS116     -0.2867
     53  CB        45.1780    4.9690   85.5590 C.3   116  LYS116      0.0271
     54  CG        45.5900    4.0460   86.6970 C.3   116  LYS116      0.0035
     55  CD        45.2820    4.7200   88.0290 C.3   116  LYS116      0.0206
     56  CE        45.5990    3.8360   89.2180 C.3   116  LYS116      0.1093
     57  NZ        44.6160    2.7390   89.3820 N.3   116  LYS116     -0.1314
     58  N         53.9960   -2.1200   92.7010 N.3   149  SER149     -0.1217
     59  CA        54.1000   -1.8850   94.1350 C.3   149  SER149      0.1889
     60  C         53.4170   -2.9500   94.9850 C.2   149  SER149      0.2288
     61  O         52.4270   -3.5580   94.5670 O.2   149  SER149     -0.2866
     62  CB        53.5210   -0.5050   94.4750 C.3   149  SER149      0.2089
     63  OG        52.1640   -0.4060   94.0860 O.3   149  SER149     -0.2183
     64  N         50.3400   -4.8480   92.9860 N.3   153  ASP153     -0.1239
     65  CA        49.7240   -3.8260   92.1370 C.3   153  ASP153      0.1674
     66  C         50.5400   -3.3880   90.9310 C.2   153  ASP153      0.2266
     67  O         51.7010   -2.9980   91.0600 O.2   153  ASP153     -0.2867
     68  CB        49.3880   -2.6020   92.9860 C.3   153  ASP153      0.1410
     69  CG        48.4230   -2.9250   94.1030 C.2   153  ASP153      0.3668
     70  OD1       48.3710   -2.1590   95.0890 O.co2 153  ASP153     -0.2456
     71  OD2       47.7090   -3.9450   93.9910 O.co2 153  ASP153     -0.2456
     72  N         50.3970   -0.7790   87.6410 N.3   155  ASP155     -0.1239
     73  CA        49.7210    0.3610   87.0250 C.3   155  ASP155      0.1674
     74  C         50.3740    0.7740   85.7160 C.2   155  ASP155      0.2266
     75  O         51.5910    0.9270   85.6400 O.2   155  ASP155     -0.2867
     76  CB        49.7280    1.5800   87.9550 C.3   155  ASP155      0.1410
     77  CG        49.0480    1.3160   89.2790 C.2   155  ASP155      0.3668
     78  OD1       47.8600    0.9340   89.2870 O.co2 155  ASP155     -0.2456
     79  OD2       49.7060    1.5040   90.3190 O.co2 155  ASP155     -0.2456
     80  N         54.8570    2.8420   94.1350 N.3   189  ASN189     -0.1240
     81  CA        54.1310    3.8860   93.4210 C.3   189  ASN189      0.1653
     82  C         54.5470    5.2740   93.9030 C.2   189  ASN189      0.2266
     83  O         53.9700    6.2850   93.4990 O.2   189  ASN189     -0.2867
     84  CB        52.6040    3.6790   93.5360 C.3   189  ASN189      0.1155
     85  CG        52.0210    4.1500   94.8640 C.2   189  ASN189      0.2627
     86  OD1       52.7360    4.5740   95.7670 O.2   189  ASN189     -0.2716
     87  ND2       50.7010    4.0680   94.9800 N.am  189  ASN189     -0.0877
@<TRIPOS>BOND
     1    49    50    1
     2    51    52    2
     3    51    50    1
     4    50    53    1
     5    53    54    1
     6    75    74    2
     7    74    73    1
     8    54    55    1
     9    73    72    1
    10    73    76    1
    11    34    33    2
    12    31    32    1
    13    76    77    1
    14    55    56    1
    15    43    42    2
    16    42    41    1
    17    33    32    1
    18    32    35    1
    19    27    26    2
    20    56    57    1
    21    77    78   ar
    22    77    79   ar
    23    35    36    1
    24    40    41    1
    25    41    44    1
    26    26    25    1
    27    36    37    1
    28    29    28    1
    29    28    30    1
    30    28    25    1
    31    44    45    1
    32    39    37   am
    33    37    38    2
    34    25    24    1
    35    66    67    2
    36    66    65    1
    37    45    46    1
    38    65    64    1
    39    65    68    1
    40    48    46   ar
    41    58    59    1
    42    46    47   ar
    43    68    69    1
    44    12    11    2
    45    81    84    1
    46    81    82    1
    47    81    80    1
    48    83    82    2
    49    84    85    1
    50    16    15    2
    51    71    69   ar
    52    11    10    1
    53    11    13   am
    54    15    14    1
    55    63    62    1
    56    69    70   ar
    57    59    62    1
    58    59    60    1
    59    10     9    1
    60    61    60    2
    61    85    87   am
    62    85    86    2
    63    14    13    1
    64    14    17    1
    65    17    18    1
    66    18    19    1
    67    19    20    1
    68    20    21    2
    69    22    21    1
    70     7     6   ar
    71    21    23    1
    72     6     5    1
    73     6     8   ar
    74     5     2    1
    75     1     2    1
    76     4     3    2
    77     2     3    1
