@<TRIPOS>MOLECULE
tmp/1u2tA00.pdb
 172 159 0 0 0
SMALL
GASTEIGER

@<TRIPOS>ATOM
      1  N         51.9880   10.3710  101.1760 N.3     9  ASP9       -0.1225
      2  CA        51.2640    9.2040  100.7200 C.3     9  ASP9        0.1805
      3  C         50.2550    8.9460  101.8360 C.2     9  ASP9        0.2598
      4  O         50.4590    9.3800  102.9690 O.2     9  ASP9       -0.2718
      5  CB        52.2410    8.0290  100.5900 C.3     9  ASP9        0.1424
      6  CG        51.5620    6.7460  100.1880 C.2     9  ASP9        0.3668
      7  OD1       50.8100    6.7770   99.1910 O.co2   9  ASP9       -0.2456
      8  OD2       51.7830    5.7110  100.8600 O.co2   9  ASP9       -0.2456
      9  N         49.1660    8.2530  101.5390 N.am   10  LEU10      -0.1966
     10  CA        48.1850    7.9970  102.5790 C.3    10  LEU10       0.1728
     11  C         48.3880    6.6640  103.2790 C.2    10  LEU10       0.2616
     12  O         48.9350    6.6160  104.3790 O.2    10  LEU10      -0.2715
     13  CB        46.7700    8.0850  102.0030 C.3    10  LEU10       0.0311
     14  CG        46.3850    9.4830  101.5090 C.3    10  LEU10       0.0022
     15  CD1       44.9660    9.4710  100.9720 C.3    10  LEU10       0.0001
     16  CD2       46.5130   10.4820  102.6430 C.3    10  LEU10       0.0001
     17  N         47.9560    5.5870  102.6350 N.am   11  ASP11      -0.1957
     18  CA        48.0640    4.2430  103.1950 C.3    11  ASP11       0.1840
     19  C         49.4500    3.8980  103.7400 C.2    11  ASP11       0.2622
     20  O         50.4350    3.9300  103.0070 O.2    11  ASP11      -0.2715
     21  CB        47.6720    3.2140  102.1390 C.3    11  ASP11       0.1450
     22  CG        47.1700    1.9200  102.7490 C.2    11  ASP11       0.3671
     23  OD1       46.1080    1.9580  103.4100 O.co2  11  ASP11      -0.2456
     24  OD2       47.8310    0.8710  102.5700 O.co2  11  ASP11      -0.2456
     25  N         49.5060    3.5620  105.0290 N.am   12  ASN12      -0.1972
     26  CA        50.7430    3.1920  105.7240 C.3    12  ASN12       0.1688
     27  C         51.7560    4.3140  105.8900 C.2    12  ASN12       0.2292
     28  O         52.8410    4.0920  106.4210 O.2    12  ASN12      -0.2864
     29  CB        51.4320    2.0220  105.0270 C.3    12  ASN12       0.1181
     30  CG        50.5110    0.8510  104.8240 C.2    12  ASN12       0.2629
     31  OD1       49.7830    0.4530  105.7350 O.2    12  ASN12      -0.2716
     32  ND2       50.5380    0.2820  103.6240 N.am   12  ASN12      -0.0877
     33  N         48.1240    9.6310   96.3700 N.3    41  THR41      -0.1203
     34  CA        47.6550    8.2810   96.6100 C.3    41  THR41       0.1994
     35  C         47.3210    7.5340   95.3240 C.2    41  THR41       0.2618
     36  O         47.1570    8.1420   94.2670 O.2    41  THR41      -0.2717
     37  CB        46.4080    8.3250   97.5270 C.3    41  THR41       0.1784
     38  OG1       45.9410    6.9950   97.7850 O.3    41  THR41      -0.2211
     39  CG2       45.3000    9.1500   96.8740 C.3    41  THR41       0.0376
     40  N         47.2340    6.2110   95.4190 N.am   42  GLY42      -0.1942
     41  CA        46.8980    5.4090   94.2600 C.3    42  GLY42       0.2014
     42  C         45.3930    5.2760   94.1480 C.2    42  GLY42       0.2638
     43  O         44.8760    4.7420   93.1660 O.2    42  GLY42      -0.2714
     44  N         44.6920    5.7790   95.1630 N.am   43  ARG43      -0.1977
     45  CA        43.2340    5.7280   95.2200 C.3    43  ARG43       0.1597
     46  C         42.5750    6.7700   94.3460 C.2    43  ARG43       0.2287
     47  O         43.1580    7.8170   94.0630 O.2    43  ARG43      -0.2864
     48  CB        42.7420    5.9550   96.6430 C.3    43  ARG43       0.0334
     49  CG        43.3240    5.0180   97.6600 C.3    43  ARG43       0.0492
     50  CD        42.5390    5.1070   98.9480 C.3    43  ARG43       0.2205
     51  NE        43.0080    4.1300   99.9170 N.pl3  43  ARG43      -0.0865
     52  CZ        42.2640    3.6630  100.9100 C.cat  43  ARG43       0.5346
     53  NH1       41.0170    4.0870  101.0570 N.pl3  43  ARG43       0.1354
     54  NH2       42.7700    2.7700  101.7480 N.pl3  43  ARG43       0.1354
     55  N         37.4510    7.4370   96.4370 N.3    47  SER47      -0.1217
     56  CA        37.9550    6.5210   97.4430 C.3    47  SER47       0.1889
     57  C         38.8420    7.2620   98.4440 C.2    47  SER47       0.2288
     58  O         39.0130    6.8230   99.5880 O.2    47  SER47      -0.2866
     59  CB        38.7470    5.4070   96.7640 C.3    47  SER47       0.2089
     60  OG        39.3400    4.5460   97.7180 O.3    47  SER47      -0.2183
     61  N         47.5370    7.5520   91.6850 N.3    67  VAL67      -0.1245
     62  CA        48.9700    7.5410   91.4080 C.3    67  VAL67       0.1561
     63  C         49.3560    8.7770   90.5930 C.2    67  VAL67       0.2260
     64  O         50.2350    8.7240   89.7380 O.2    67  VAL67      -0.2867
     65  CB        49.3930    6.2680   90.6340 C.3    67  VAL67       0.0252
     66  CG1       50.8830    6.0420   90.7890 C.3    67  VAL67       0.0019
     67  CG2       48.6280    5.0720   91.1390 C.3    67  VAL67       0.0019
     68  N         41.8820   -5.1370   87.9410 N.3   107  GLN107     -0.1245
     69  CA        41.3580   -4.6790   89.2170 C.3   107  GLN107      0.1566
     70  C         39.9490   -4.2030   88.9130 C.2   107  GLN107      0.2260
     71  O         39.6150   -3.9570   87.7550 O.2   107  GLN107     -0.2867
     72  CB        42.2000   -3.5300   89.7740 C.3   107  GLN107      0.0367
     73  CG        43.5720   -3.9560   90.2890 C.3   107  GLN107      0.0905
     74  CD        44.2730   -2.8600   91.0790 C.2   107  GLN107      0.2608
     75  OE1       43.6340   -2.1230   91.8210 O.2   107  GLN107     -0.2717
     76  NE2       45.5900   -2.7670   90.9380 N.am  107  GLN107     -0.0878
     77  N         38.6880    1.1360   89.7670 N.3   111  GLU111     -0.1245
     78  CA        40.1070    1.4010   90.0020 C.3   111  GLU111      0.1567
     79  C         40.7770    1.8630   88.7210 C.2   111  GLU111      0.2260
     80  O         41.9770    2.1270   88.7030 O.2   111  GLU111     -0.2867
     81  CB        40.8260    0.1450   90.4830 C.3   111  GLU111      0.0388
     82  CG        40.4370   -0.3060   91.8610 C.3   111  GLU111      0.1160
     83  CD        40.4660    0.8260   92.8490 C.2   111  GLU111      0.3649
     84  OE1       41.2790    1.7590   92.6630 O.co2 111  GLU111     -0.2457
     85  OE2       39.6810    0.7750   93.8170 O.co2 111  GLU111     -0.2457
     86  N         44.8150    5.2260   83.6860 N.3   116  LYS116     -0.1245
     87  CA        45.2370    4.2740   84.6990 C.3   116  LYS116      0.1561
     88  C         44.5960    2.9110   84.4940 C.2   116  LYS116      0.2260
     89  O         43.3970    2.7270   84.7200 O.2   116  LYS116     -0.2867
     90  CB        44.9070    4.8040   86.0920 C.3   116  LYS116      0.0271
     91  CG        45.3440    3.8800   87.2160 C.3   116  LYS116      0.0035
     92  CD        45.0720    4.5040   88.5660 C.3   116  LYS116      0.0206
     93  CE        45.4660    3.5770   89.6910 C.3   116  LYS116      0.1093
     94  NZ        44.6300    2.3610   89.6940 N.3   116  LYS116     -0.1314
     95  N         46.0890   -6.9840   89.2770 N.3   120  HIS120     -0.1241
     96  CA        46.5780   -7.6190   90.4840 C.3   120  HIS120      0.1621
     97  C         47.4310   -8.7900   90.0230 C.2   120  HIS120      0.2264
     98  O         47.0320   -9.5400   89.1300 O.2   120  HIS120     -0.2867
     99  CB        45.4090   -8.1120   91.3340 C.3   120  HIS120      0.0745
    100  CG        44.7700   -7.0420   92.1640 C.ar  120  HIS120      0.0817
    101  ND1       43.4930   -7.1550   92.6690 N.ar  120  HIS120     -0.2268
    102  CD2       45.2460   -5.8560   92.6120 C.ar  120  HIS120      0.1154
    103  CE1       43.2100   -6.0860   93.3920 C.ar  120  HIS120      0.1986
    104  NE2       44.2570   -5.2820   93.3740 N.ar  120  HIS120     -0.2212
    105  N         53.7000   -2.2340   93.1630 N.3   149  SER149     -0.1202
    106  CA        53.8240   -1.9800   94.5900 C.3   149  SER149      0.2020
    107  C         53.1730   -3.0890   95.4050 C.2   149  SER149      0.2619
    108  O         52.2850   -3.7880   94.9110 O.2   149  SER149     -0.2717
    109  CB        53.1800   -0.6350   94.9400 C.3   149  SER149      0.2103
    110  OG        51.8110   -0.6160   94.5850 O.3   149  SER149     -0.2182
    111  N         53.6330   -3.2550   96.6430 N.am  150  SER150     -0.1951
    112  CA        53.0840   -4.2590   97.5510 C.3   150  SER150      0.1924
    113  C         53.1370   -5.6840   97.0120 C.2   150  SER150      0.2314
    114  O         52.4340   -6.5730   97.4980 O.2   150  SER150     -0.2863
    115  CB        51.6360   -3.9040   97.8850 C.3   150  SER150      0.2116
    116  OG        51.5600   -2.6140   98.4570 O.3   150  SER150     -0.2180
    117  N         51.8290   -6.9100   94.5260 N.3   152  LYS152     -0.1231
    118  CA        50.6160   -7.3880   93.8690 C.3   152  LYS152      0.1693
    119  C         49.9150   -6.3630   92.9840 C.2   152  LYS152      0.2592
    120  O         49.2580   -6.7400   92.0160 O.2   152  LYS152     -0.2718
    121  CB        49.6100   -7.9100   94.9000 C.3   152  LYS152      0.0285
    122  CG        49.0130   -6.8280   95.7790 C.3   152  LYS152      0.0035
    123  CD        47.7450   -7.3080   96.4690 C.3   152  LYS152      0.0206
    124  CE        47.1220   -6.2050   97.3310 C.3   152  LYS152      0.1093
    125  NZ        46.6160   -5.0400   96.5370 N.3   152  LYS152     -0.1314
    126  N         50.0450   -5.0780   93.3120 N.am  153  ASP153     -0.1974
    127  CA        49.3880   -4.0280   92.5320 C.3   153  ASP153      0.1709
    128  C         50.2120   -3.5650   91.3520 C.2   153  ASP153      0.2293
    129  O         51.3330   -3.1010   91.5240 O.2   153  ASP153     -0.2864
    130  CB        49.0450   -2.8210   93.4100 C.3   153  ASP153      0.1436
    131  CG        47.9130   -3.1090   94.3840 C.2   153  ASP153      0.3671
    132  OD1       46.9750   -3.8490   94.0140 O.co2 153  ASP153     -0.2456
    133  OD2       47.9510   -2.5830   95.5150 O.co2 153  ASP153     -0.2456
    134  N         50.2100   -1.0260   88.0240 N.3   155  ASP155     -0.1239
    135  CA        49.5750    0.1240   87.3820 C.3   155  ASP155      0.1674
    136  C         50.2790    0.5620   86.1080 C.2   155  ASP155      0.2266
    137  O         51.4880    0.7910   86.1040 O.2   155  ASP155     -0.2867
    138  CB        49.5170    1.3180   88.3420 C.3   155  ASP155      0.1410
    139  CG        48.8200    0.9870   89.6430 C.2   155  ASP155      0.3668
    140  OD1       47.7020    0.4380   89.5930 O.co2 155  ASP155     -0.2456
    141  OD2       49.3880    1.2760   90.7150 O.co2 155  ASP155     -0.2456
    142  N         53.1540    9.6770   90.8380 N.3   163  LYS163     -0.1245
    143  CA        53.3320   10.6030   91.9560 C.3   163  LYS163      0.1561
    144  C         54.4600   11.6290   91.8510 C.2   163  LYS163      0.2260
    145  O         54.2840   12.7900   92.2210 O.2   163  LYS163     -0.2867
    146  CB        53.4700    9.8130   93.2590 C.3   163  LYS163      0.0271
    147  CG        52.1960    9.0640   93.6470 C.3   163  LYS163      0.0035
    148  CD        52.3220    8.3660   94.9930 C.3   163  LYS163      0.0206
    149  CE        51.0530    7.6050   95.3370 C.3   163  LYS163      0.1093
    150  NZ        51.1730    6.8520   96.6140 N.3   163  LYS163     -0.1314
    151  N         55.9660    4.7950  101.2550 N.3   186  ASP186     -0.1225
    152  CA        56.3070    3.4730  101.7750 C.3   186  ASP186      0.1805
    153  C         56.3510    2.3620  100.7250 C.2   186  ASP186      0.2598
    154  O         56.9590    1.3250  100.9640 O.2   186  ASP186     -0.2718
    155  CB        55.3150    3.0480  102.8650 C.3   186  ASP186      0.1424
    156  CG        54.0170    2.4900  102.2920 C.2   186  ASP186      0.3668
    157  OD1       53.4620    1.5360  102.8810 O.co2 186  ASP186     -0.2456
    158  OD2       53.5440    3.0070  101.2570 O.co2 186  ASP186     -0.2456
    159  N         55.7130    2.5620   99.5750 N.am  187  SER187     -0.1952
    160  CA        55.6820    1.5160   98.5580 C.3   187  SER187      0.1924
    161  C         56.2550    1.8740   97.1980 C.2   187  SER187      0.2314
    162  O         56.8770    2.9190   97.0180 O.2   187  SER187     -0.2863
    163  CB        54.2490    1.0210   98.3630 C.3   187  SER187      0.2116
    164  OG        53.4680    1.9930   97.6930 O.3   187  SER187     -0.2180
    165  N         54.6430    2.6720   94.4720 N.3   189  ASN189     -0.1240
    166  CA        53.9880    3.7750   93.7760 C.3   189  ASN189      0.1653
    167  C         54.4830    5.0940   94.3560 C.2   189  ASN189      0.2266
    168  O         54.0020    6.1600   93.9900 O.2   189  ASN189     -0.2867
    169  CB        52.4580    3.6930   93.8900 C.3   189  ASN189      0.1155
    170  CG        51.9680    3.7470   95.3190 C.2   189  ASN189      0.2627
    171  OD1       52.5750    4.3810   96.1790 O.2   189  ASN189     -0.2716
    172  ND2       50.8450    3.0940   95.5760 N.am  189  ASN189     -0.0877
@<TRIPOS>BOND
     1    86    87    1
     2    88    87    1
     3    88    89    2
     4    87    90    1
     5    90    91    1
     6   137   136    2
     7   136   135    1
     8    91    92    1
     9   135   134    1
    10   135   138    1
    11    71    70    2
    12    68    69    1
    13   138   139    1
    14    92    93    1
    15    80    79    2
    16    79    78    1
    17    70    69    1
    18    98    97    2
    19    69    72    1
    20    95    96    1
    21   140   139   ar
    22   139   141   ar
    23    93    94    1
    24    64    63    2
    25    77    78    1
    26    72    73    1
    27    78    81    1
    28    97    96    1
    29    73    74    1
    30    81    82    1
    31    96    99    1
    32    63    62    1
    33    65    66    1
    34    65    67    1
    35    65    62    1
    36   142   143    1
    37    76    74   am
    38    74    75    2
    39    99   100    1
    40   128   129    2
    41   128   127    1
    42    62    61    1
    43   144   143    1
    44   144   145    2
    45    82    83    1
    46   143   146    1
    47   120   119    2
    48   100   102   ar
    49   100   101   ar
    50   127   126    1
    51   127   130    1
    52   102   104   ar
    53    84    83   ar
    54   101   103   ar
    55    83    85   ar
    56   119   126   am
    57   119   118    1
    58   105   106    1
    59    43    42    2
    60   146   147    1
    61   104   103   ar
    62   130   131    1
    63   147   148    1
    64   166   169    1
    65   166   167    1
    66   166   165    1
    67   118   117    1
    68   118   121    1
    69   169   170    1
    70   168   167    2
    71   132   131   ar
    72    47    46    2
    73    42    41    1
    74    42    44   am
    75    41    40    1
    76    36    35    2
    77    46    45    1
    78   131   133   ar
    79   110   109    1
    80   106   109    1
    81   106   107    1
    82   121   122    1
    83   108   107    2
    84   148   149    1
    85    44    45    1
    86    45    48    1
    87   170   172   am
    88   170   171    2
    89    35    40   am
    90    35    34    1
    91   149   150    1
    92   107   111   am
    93   122   123    1
    94    33    34    1
    95    55    56    1
    96   123   124    1
    97   125   124    1
    98    34    37    1
    99    48    49    1
   100   111   112    1
   101    59    56    1
   102    59    60    1
   103    39    37    1
   104   113   114    2
   105   113   112    1
   106   162   161    2
   107   161   160    1
   108    56    57    1
   109    37    38    1
   110   112   115    1
   111    49    50    1
   112   164   163    1
   113   115   116    1
   114   163   160    1
   115    57    58    2
   116   160   159    1
   117    50    51    1
   118     7     6   ar
   119   159   153   am
   120    51    52    2
   121     6     5    1
   122     6     8   ar
   123     5     2    1
   124     2     1    1
   125     2     3    1
   126   153   154    2
   127   153   152    1
   128    52    53    1
   129    52    54    1
   130    15    14    1
   131   151   152    1
   132   158   156   ar
   133    14    13    1
   134    14    16    1
   135     9     3   am
   136     9    10    1
   137   152   155    1
   138     3     4    2
   139    13    10    1
   140    21    22    1
   141    21    18    1
   142   156   155    1
   143   156   157   ar
   144    24    22   ar
   145    10    11    1
   146    17    18    1
   147    17    11   am
   148    22    23   ar
   149    20    19    2
   150    18    19    1
   151    11    12    2
   152    32    30   am
   153    19    25   am
   154    30    29    1
   155    30    31    2
   156    29    26    1
   157    25    26    1
   158    26    27    1
   159    27    28    2
