@<TRIPOS>MOLECULE
tmp/1u2vA00.pdb
 123 116 0 0 0
SMALL
GASTEIGER

@<TRIPOS>ATOM
      1  N         19.8020   16.0410   48.5730 N.3    13  GLY13      -0.1210
      2  CA        19.5610   15.0740   47.5190 C.3    13  GLY13       0.1956
      3  C         19.5140   13.6590   48.0710 C.2    13  GLY13       0.2613
      4  O         19.7210   13.4240   49.2650 O.2    13  GLY13      -0.2717
      5  N         19.2440   12.7030   47.1920 N.am   14  THR14      -0.1938
      6  CA        19.1670   11.3010   47.5840 C.3    14  THR14       0.2028
      7  C         20.5080   10.7230   48.0300 C.2    14  THR14       0.2643
      8  O         20.5650    9.9040   48.9390 O.2    14  THR14      -0.2714
      9  CB        18.6180   10.4590   46.4260 C.3    14  THR14       0.1808
     10  OG1       17.3260   10.9640   46.0630 O.3    14  THR14      -0.2208
     11  CG2       18.4920    8.9950   46.8280 C.3    14  THR14       0.0379
     12  N         21.5830   11.1470   47.3810 N.am   15  GLY15      -0.1939
     13  CA        22.8990   10.6550   47.7340 C.3    15  GLY15       0.2014
     14  C         23.7140   11.6660   48.5120 C.2    15  GLY15       0.2638
     15  O         24.3170   11.3360   49.5300 O.2    15  GLY15      -0.2714
     16  N         23.7230   12.9100   48.0520 N.am   16  TYR16      -0.1973
     17  CA        24.4910   13.9490   48.7190 C.3    16  TYR16       0.1639
     18  C         23.6990   15.1890   49.0720 C.2    16  TYR16       0.2290
     19  O         22.7180   15.5370   48.4120 O.2    16  TYR16      -0.2864
     20  CB        25.6860   14.3660   47.8610 C.3    16  TYR16       0.0560
     21  CG        26.7760   13.3280   47.7940 C.ar   16  TYR16      -0.0198
     22  CD1       26.6950   12.2540   46.9030 C.ar   16  TYR16      -0.0009
     23  CD2       27.8760   13.3910   48.6560 C.ar   16  TYR16      -0.0009
     24  CE1       27.6770   11.2690   46.8710 C.ar   16  TYR16       0.0417
     25  CE2       28.8660   12.4070   48.6370 C.ar   16  TYR16       0.0417
     26  CZ        28.7560   11.3470   47.7410 C.ar   16  TYR16       0.1957
     27  OH        29.7070   10.3570   47.7340 O.3    16  TYR16      -0.2866
     28  N         24.1190   19.2460   49.7100 N.3    18  LYS18      -0.1245
     29  CA        24.9860   20.3890   49.4830 C.3    18  LYS18       0.1561
     30  C         24.5560   21.5260   50.3990 C.2    18  LYS18       0.2260
     31  O         23.3890   21.9240   50.3980 O.2    18  LYS18      -0.2867
     32  CB        24.8850   20.8450   48.0250 C.3    18  LYS18       0.0271
     33  CG        25.5970   19.9740   47.0280 C.3    18  LYS18       0.0035
     34  CD        25.0250   18.5750   46.9110 C.3    18  LYS18       0.0206
     35  CE        23.7730   18.5350   46.0810 C.3    18  LYS18       0.1093
     36  NZ        23.2980   17.1270   45.8880 N.3    18  LYS18      -0.1314
     37  N         20.8790   11.7470   38.1490 N.3   160  GLY160     -0.1210
     38  CA        21.6820   11.4700   39.3230 C.3   160  GLY160      0.1956
     39  C         22.1850   10.0440   39.2810 C.2   160  GLY160      0.2611
     40  O         22.9510    9.6900   38.3900 O.2   160  GLY160     -0.2717
     41  N         21.7490    9.2140   40.2210 N.am  161  ASP161     -0.1973
     42  CA        22.2030    7.8310   40.2450 C.3   161  ASP161      0.1709
     43  C         21.0770    6.8420   40.0190 C.2   161  ASP161      0.2293
     44  O         21.2910    5.7840   39.4410 O.2   161  ASP161     -0.2864
     45  CB        22.8770    7.5070   41.5810 C.3   161  ASP161      0.1436
     46  CG        23.6940    6.2170   41.5290 C.2   161  ASP161      0.3671
     47  OD1       24.7260    6.2060   40.8180 O.co2 161  ASP161     -0.2456
     48  OD2       23.3060    5.2170   42.1880 O.co2 161  ASP161     -0.2456
     49  N         23.0430    7.0630   36.5230 N.3   186  GLY186     -0.1225
     50  CA        24.3350    6.7430   37.1050 C.3   186  GLY186      0.1811
     51  C         24.6100    5.2890   37.4650 C.2   186  GLY186      0.2280
     52  O         25.6260    4.7340   37.0490 O.2   186  GLY186     -0.2866
     53  N         32.5190    2.6570   39.1980 N.3   214  LYS214     -0.1245
     54  CA        32.0920    4.0310   39.4300 C.3   214  LYS214      0.1561
     55  C         33.2870    4.9860   39.2820 C.2   214  LYS214      0.2260
     56  O         33.1380    6.1050   38.7960 O.2   214  LYS214     -0.2867
     57  CB        31.4790    4.1470   40.8330 C.3   214  LYS214      0.0271
     58  CG        30.8200    5.4830   41.1420 C.3   214  LYS214      0.0035
     59  CD        30.1210    5.4310   42.4970 C.3   214  LYS214      0.0206
     60  CE        29.4920    6.7640   42.8670 C.3   214  LYS214      0.1093
     61  NZ        30.5330    7.8200   43.0370 N.3   214  LYS214     -0.1314
     62  N         34.3580    5.2950   35.5070 N.3   217  LYS217     -0.1231
     63  CA        33.3000    6.0490   34.8500 C.3   217  LYS217      0.1693
     64  C         33.5340    7.5500   34.9070 C.2   217  LYS217      0.2591
     65  O         33.6810    8.1970   33.8740 O.2   217  LYS217     -0.2718
     66  CB        31.9420    5.7450   35.4830 C.3   217  LYS217      0.0285
     67  CG        30.8140    6.6270   34.9420 C.3   217  LYS217      0.0035
     68  CD        29.4530    6.2360   35.4990 C.3   217  LYS217      0.0206
     69  CE        29.3570    6.4650   36.9950 C.3   217  LYS217      0.1093
     70  NZ        27.9710    6.2240   37.4800 N.3   217  LYS217     -0.1314
     71  N         33.5740    8.1000   36.1170 N.am  218  GLU218     -0.1979
     72  CA        33.7600    9.5360   36.2820 C.3   218  GLU218      0.1602
     73  C         35.1900   10.0630   36.1340 C.2   218  GLU218      0.2287
     74  O         35.4290   11.2570   36.3040 O.2   218  GLU218     -0.2864
     75  CB        33.1460    9.9880   37.6170 C.3   218  GLU218      0.0415
     76  CG        33.5550    9.1840   38.8420 C.3   218  GLU218      0.1163
     77  CD        32.6360    9.4370   40.0350 C.2   218  GLU218      0.3649
     78  OE1       31.4780    8.9610   40.0170 O.co2 218  GLU218     -0.2457
     79  OE2       33.0680   10.1210   40.9920 O.co2 218  GLU218     -0.2457
     80  N         23.0640   17.4070   37.4240 N.3   312  GLY312     -0.1210
     81  CA        23.3280   16.0970   37.9760 C.3   312  GLY312      0.1956
     82  C         24.6940   15.6030   37.5590 C.2   312  GLY312      0.2612
     83  O         25.2470   16.0550   36.5560 O.2   312  GLY312     -0.2717
     84  N         25.2380   14.6710   38.3330 N.am  313  GLY313     -0.1942
     85  CA        26.5470   14.1340   38.0220 C.3   313  GLY313      0.2014
     86  C         26.5910   13.4360   36.6750 C.2   313  GLY313      0.2639
     87  O         27.5580   13.5790   35.9300 O.2   313  GLY313     -0.2714
     88  N         25.5330   12.6980   36.3530 N.am  314  SER314     -0.1949
     89  CA        25.4750   11.9550   35.1040 C.3   314  SER314      0.1924
     90  C         25.4710   12.7700   33.8180 C.2   314  SER314      0.2314
     91  O         25.4130   12.2010   32.7310 O.2   314  SER314     -0.2863
     92  CB        24.2690   11.0130   35.1120 C.3   314  SER314      0.2116
     93  OG        24.5270    9.8730   35.9180 O.3   314  SER314     -0.2180
     94  N         27.8420   15.2500   33.4300 N.3   316  MET316     -0.1230
     95  CA        29.1940   15.8000   33.3690 C.3   316  MET316      0.1702
     96  C         29.9450   15.2910   32.1430 C.2   316  MET316      0.2592
     97  O         30.8590   15.9520   31.6510 O.2   316  MET316     -0.2718
     98  CB        29.9940   15.3990   34.6100 C.3   316  MET316      0.0401
     99  CG        29.3440   15.6970   35.9520 C.3   316  MET316      0.0596
    100  SD        29.0320   17.4390   36.1960 S.3   316  MET316     -0.1393
    101  CE        30.7160   18.1080   36.1910 C.3   316  MET316      0.0692
    102  N         29.5640   14.1070   31.6720 N.am  317  PHE317     -0.1976
    103  CA        30.2020   13.4640   30.5210 C.3   317  PHE317      0.1639
    104  C         30.4790   14.3670   29.3280 C.2   317  PHE317      0.2290
    105  O         29.5600   14.8980   28.7080 O.2   317  PHE317     -0.2864
    106  CB        29.3680   12.2680   30.0560 C.3   317  PHE317      0.0560
    107  CG        29.3620   11.1190   31.0200 C.ar  317  PHE317     -0.0200
    108  CD1       30.5530   10.5010   31.3930 C.ar  317  PHE317     -0.0042
    109  CD2       28.1610   10.6380   31.5400 C.ar  317  PHE317     -0.0042
    110  CE1       30.5480    9.4130   32.2690 C.ar  317  PHE317     -0.0003
    111  CE2       28.1420    9.5510   32.4170 C.ar  317  PHE317     -0.0003
    112  CZ        29.3370    8.9350   32.7830 C.ar  317  PHE317     -0.0000
    113  N         27.6660   20.0720   38.1630 N.3   358  ARG358     -0.1245
    114  CA        27.6730   19.0490   39.2070 C.3   358  ARG358      0.1563
    115  C         26.7200   19.4470   40.3350 C.2   358  ARG358      0.2260
    116  O         25.9440   18.6210   40.8260 O.2   358  ARG358     -0.2867
    117  CB        29.0810   18.8430   39.7840 C.3   358  ARG358      0.0307
    118  CG        29.3270   17.4270   40.3520 C.3   358  ARG358      0.0489
    119  CD        28.1390   16.9140   41.1770 C.3   358  ARG358      0.2205
    120  NE        28.2920   15.5410   41.6630 N.pl3 358  ARG358     -0.0865
    121  CZ        27.3660   14.8910   42.3740 C.cat 358  ARG358      0.5346
    122  NH1       26.2160   15.4850   42.6810 N.pl3 358  ARG358      0.1354
    123  NH2       27.5880   13.6500   42.7930 N.pl3 358  ARG358      0.1354
@<TRIPOS>BOND
     1   105   104    2
     2   104   103    1
     3   106   103    1
     4   106   107    1
     5   103   102    1
     6   107   108   ar
     7   107   109   ar
     8   108   110   ar
     9   109   111   ar
    10    97    96    2
    11   102    96   am
    12    96    95    1
    13   110   112   ar
    14   111   112   ar
    15    91    90    2
    16    95    94    1
    17    95    98    1
    18    90    89    1
    19    65    64    2
    20    98    99    1
    21    63    64    1
    22    63    66    1
    23    63    62    1
    24    64    71   am
    25    67    66    1
    26    67    68    1
    27    89    92    1
    28    89    88    1
    29    92    93    1
    30    68    69    1
    31    87    86    2
    32    99   100    1
    33    71    72    1
    34    73    72    1
    35    73    74    2
    36   101   100    1
    37    72    75    1
    38    88    86   am
    39    49    50    1
    40    83    82    2
    41    86    85    1
    42    69    70    1
    43    52    51    2
    44    50    51    1
    45    80    81    1
    46    82    81    1
    47    82    84   am
    48    75    76    1
    49    85    84    1
    50    37    38    1
    51   113   114    1
    52    40    39    2
    53    56    55    2
    54    76    77    1
    55    53    54    1
    56   114   117    1
    57   114   115    1
    58    39    38    1
    59    39    41   am
    60    55    54    1
    61    54    57    1
    62    44    43    2
    63   117   118    1
    64    78    77   ar
    65    43    42    1
    66    77    79   ar
    67    41    42    1
    68    42    45    1
    69   115   116    2
    70   118   119    1
    71    47    46   ar
    72    57    58    1
    73    58    59    1
    74   119   120    1
    75    46    45    1
    76    46    48   ar
    77   120   121    2
    78   121   122    1
    79   121   123    1
    80    59    60    1
    81    60    61    1
    82    36    35    1
    83    10     9    1
    84    35    34    1
    85     9    11    1
    86     9     6    1
    87    24    22   ar
    88    24    26   ar
    89    22    21   ar
    90    34    33    1
    91    33    32    1
    92     5     6    1
    93     5     3   am
    94    12    13    1
    95    12     7   am
    96     2     3    1
    97     2     1    1
    98     6     7    1
    99    13    14    1
   100    27    26    1
   101    26    25   ar
   102    21    20    1
   103    21    23   ar
   104    20    17    1
   105    32    29    1
   106     7     8    2
   107    16    14   am
   108    16    17    1
   109     3     4    2
   110    19    18    2
   111    14    15    2
   112    25    23   ar
   113    17    18    1
   114    29    28    1
   115    29    30    1
   116    31    30    2
