@<TRIPOS>MOLECULE
tmp/1u2yA00.pdb
 124 120 0 0 0
SMALL
GASTEIGER

@<TRIPOS>ATOM
      1  N         19.3130   23.6520   38.5970 N.3    57  TRP57      -0.1241
      2  CA        18.8950   23.8220   39.9790 C.3    57  TRP57       0.1605
      3  C         18.5320   22.4690   40.5910 C.2    57  TRP57       0.2264
      4  O         18.7750   22.2340   41.7750 O.2    57  TRP57      -0.2867
      5  CB        17.6840   24.7590   40.0770 C.3    57  TRP57       0.0550
      6  CG        16.4890   24.2710   39.3180 C.ar   57  TRP57       0.0003
      7  CD1       16.2020   24.5050   38.0000 C.ar   57  TRP57       0.0946
      8  CD2       15.4440   23.4210   39.8100 C.ar   57  TRP57       0.0152
      9  NE1       15.0440   23.8470   37.6450 N.ar   57  TRP57      -0.2442
     10  CE2       14.5600   23.1770   38.7360 C.ar   57  TRP57       0.0810
     11  CE3       15.1700   22.8390   41.0590 C.ar   57  TRP57       0.0012
     12  CZ2       13.4160   22.3750   38.8730 C.ar   57  TRP57       0.0191
     13  CZ3       14.0340   22.0440   41.1930 C.ar   57  TRP57       0.0001
     14  CH2       13.1720   21.8210   40.1060 C.ar   57  TRP57       0.0015
     15  N         18.7210   18.0370   44.3250 N.3    61  TYR61      -0.1241
     16  CA        17.7320   17.1090   44.8490 C.3    61  TYR61       0.1605
     17  C         18.1550   15.6740   44.5590 C.2    61  TYR61       0.2264
     18  O         17.3430   14.7480   44.5590 O.2    61  TYR61      -0.2867
     19  CB        16.3560   17.4470   44.2660 C.3    61  TYR61       0.0534
     20  CG        15.8260   18.7140   44.8960 C.ar   61  TYR61      -0.0201
     21  CD1       15.2000   18.6800   46.1450 C.ar   61  TYR61      -0.0009
     22  CD2       16.0780   19.9600   44.3220 C.ar   61  TYR61      -0.0009
     23  CE1       14.8520   19.8530   46.8130 C.ar   61  TYR61       0.0417
     24  CE2       15.7340   21.1400   44.9830 C.ar   61  TYR61       0.0417
     25  CZ        15.1270   21.0770   46.2290 C.ar   61  TYR61       0.1957
     26  OH        14.8260   22.2350   46.9120 O.3    61  TYR61      -0.2866
     27  N          0.2910    6.6890   39.6320 N.3   150  TYR150     -0.1241
     28  CA         0.0520    7.3660   40.9020 C.3   150  TYR150      0.1605
     29  C         -1.2380    6.9500   41.5990 C.2   150  TYR150      0.2264
     30  O         -1.5440    7.4350   42.6880 O.2   150  TYR150     -0.2867
     31  CB         0.0740    8.8820   40.7130 C.3   150  TYR150      0.0534
     32  CG         1.4720    9.4460   40.6960 C.ar  150  TYR150     -0.0201
     33  CD1        2.3210    9.2260   39.6130 C.ar  150  TYR150     -0.0009
     34  CD2        1.9680   10.1580   41.7880 C.ar  150  TYR150     -0.0009
     35  CE1        3.6310    9.6960   39.6190 C.ar  150  TYR150      0.0417
     36  CE2        3.2760   10.6330   41.8060 C.ar  150  TYR150      0.0417
     37  CZ         4.1020   10.3970   40.7200 C.ar  150  TYR150      0.1957
     38  OH         5.4000   10.8550   40.7430 O.3   150  TYR150     -0.2866
     39  N         11.1820    7.6480   42.1030 N.3   161  LEU161     -0.1231
     40  CA        10.5690    8.8510   41.5590 C.3   161  LEU161      0.1693
     41  C         11.4630    9.2630   40.3950 C.2   161  LEU161      0.2592
     42  O         12.5860    9.7150   40.5970 O.2   161  LEU161     -0.2718
     43  CB        10.5390    9.9530   42.6220 C.3   161  LEU161      0.0284
     44  CG        10.1260   11.3640   42.1780 C.3   161  LEU161      0.0019
     45  CD1        8.7130   11.3550   41.5940 C.3   161  LEU161      0.0001
     46  CD2       10.2080   12.3020   43.3810 C.3   161  LEU161      0.0001
     47  N         10.9570    9.0900   39.1750 N.am  162  THR162     -0.1953
     48  CA        11.7030    9.4030   37.9640 C.3   162  THR162      0.1897
     49  C         13.1540    8.9190   38.0250 C.2   162  THR162      0.2313
     50  O         14.0860    9.6680   37.7280 O.2   162  THR162     -0.2863
     51  CB        11.6780   10.9250   37.6430 C.3   162  THR162      0.1794
     52  OG1       12.2940   11.6570   38.7070 O.3   162  THR162     -0.2208
     53  CG2       10.2420   11.4070   37.4720 C.3   162  THR162      0.0378
     54  N         11.2600   17.0000   51.9280 N.3   196  ASP196     -0.1225
     55  CA        11.1050   16.8870   50.4900 C.3   196  ASP196      0.1805
     56  C         10.4840   15.5540   50.0860 C.2   196  ASP196      0.2597
     57  O         10.8060   14.5060   50.6530 O.2   196  ASP196     -0.2718
     58  CB        12.4750   17.0320   49.8220 C.3   196  ASP196      0.1424
     59  CG        12.4030   16.9230   48.3140 C.2   196  ASP196      0.3668
     60  OD1       11.8520   17.8490   47.6860 O.co2 196  ASP196     -0.2456
     61  OD2       12.8930   15.9140   47.7610 O.co2 196  ASP196     -0.2456
     62  N          9.5890   15.6090   49.1050 N.am  197  ALA197     -0.1979
     63  CA         8.9290   14.4200   48.5690 C.3   197  ALA197      0.1597
     64  C          8.2810   13.5100   49.6130 C.2   197  ALA197      0.2287
     65  O          8.4030   12.2880   49.5230 O.2   197  ALA197     -0.2864
     66  CB         9.9350   13.6170   47.7350 C.3   197  ALA197      0.0319
     67  N          5.2440   12.7190   50.0110 N.3   199  LYS199     -0.1231
     68  CA         4.2100   11.8910   49.4040 C.3   199  LYS199      0.1693
     69  C          4.7930   10.5260   49.0380 C.2   199  LYS199      0.2592
     70  O          4.1000    9.5070   49.0320 O.2   199  LYS199     -0.2718
     71  CB         3.7090   12.6010   48.1490 C.3   199  LYS199      0.0285
     72  CG         2.7290   11.8450   47.2900 C.3   199  LYS199      0.0035
     73  CD         2.3550   12.7370   46.1140 C.3   199  LYS199      0.0206
     74  CE         1.2410   12.1620   45.2710 C.3   199  LYS199      0.1093
     75  NZ         0.8600   13.1400   44.2100 N.3   199  LYS199     -0.1314
     76  N          6.0910   10.5220   48.7510 N.am  200  HIS200     -0.1976
     77  CA         6.7930    9.3210   48.3440 C.3   200  HIS200      0.1656
     78  C          7.3780    8.4970   49.4820 C.2   200  HIS200      0.2291
     79  O          8.1450    7.5610   49.2580 O.2   200  HIS200     -0.2864
     80  CB         7.8710    9.7310   47.3440 C.3   200  HIS200      0.0771
     81  CG         7.3120   10.4350   46.1490 C.ar  200  HIS200      0.0820
     82  ND1        6.6730    9.7630   45.1280 N.ar  200  HIS200     -0.2267
     83  CD2        7.2200   11.7510   45.8510 C.ar  200  HIS200      0.1154
     84  CE1        6.2090   10.6400   44.2530 C.ar  200  HIS200      0.1986
     85  NE2        6.5260   11.8510   44.6680 N.ar  200  HIS200     -0.2212
     86  N          6.3300   18.1340   52.2520 N.3   232  GLU232     -0.1245
     87  CA         5.8940   18.4580   50.9040 C.3   232  GLU232      0.1567
     88  C          5.0570   17.2980   50.3980 C.2   232  GLU232      0.2260
     89  O          5.5820   16.2360   50.0560 O.2   232  GLU232     -0.2867
     90  CB         7.0600   18.6710   49.9360 C.3   232  GLU232      0.0388
     91  CG         6.5570   19.0690   48.5410 C.3   232  GLU232      0.1160
     92  CD         7.4140   18.5430   47.4030 C.2   232  GLU232      0.3649
     93  OE1        8.2350   17.6290   47.6300 O.co2 232  GLU232     -0.2457
     94  OE2        7.2540   19.0380   46.2700 O.co2 232  GLU232     -0.2457
     95  N          1.9950   16.8020   47.6400 N.3   234  ILE234     -0.1245
     96  CA         1.1830   17.4320   46.6130 C.3   234  ILE234      0.1561
     97  C         -0.1310   16.6680   46.5410 C.2   234  ILE234      0.2260
     98  O         -0.1860   15.5380   46.0530 O.2   234  ILE234     -0.2867
     99  CB         1.9090   17.4170   45.2470 C.3   234  ILE234      0.0252
    100  CG1        3.2080   18.2230   45.3610 C.3   234  ILE234      0.0019
    101  CG2        1.0080   18.0080   44.1670 C.3   234  ILE234      0.0019
    102  CD1        4.0490   18.2570   44.1050 C.3   234  ILE234      0.0001
    103  N          9.5960   24.7630   42.5170 N.3   299  ASP299     -0.1239
    104  CA         9.2350   23.8320   41.4510 C.3   299  ASP299      0.1674
    105  C          8.2220   24.3870   40.4550 C.2   299  ASP299      0.2266
    106  O          8.4770   24.4150   39.2480 O.2   299  ASP299     -0.2867
    107  CB         8.6350   22.5400   42.0180 C.3   299  ASP299      0.1410
    108  CG         9.6690   21.6260   42.6260 C.2   299  ASP299      0.3668
    109  OD1       10.6320   21.2470   41.9290 O.co2 299  ASP299     -0.2456
    110  OD2        9.5070   21.2760   43.8100 O.co2 299  ASP299     -0.2456
    111  N          7.5250   22.8740   37.1180 N.3   304  HIS304     -0.1226
    112  CA         8.0360   21.5670   37.5370 C.3   304  HIS304      0.1752
    113  C          7.2890   20.8710   38.6730 C.2   304  HIS304      0.2596
    114  O          7.6380   19.7490   39.0450 O.2   304  HIS304     -0.2718
    115  CB         9.5070   21.6970   37.9370 C.3   304  HIS304      0.0759
    116  CG        10.4650   21.4020   36.8280 C.ar  304  HIS304      0.0818
    117  ND1       10.8890   20.1240   36.5340 N.ar  304  HIS304     -0.2268
    118  CD2       11.0830   22.2180   35.9420 C.ar  304  HIS304      0.1154
    119  CE1       11.7280   20.1660   35.5150 C.ar  304  HIS304      0.1986
    120  NE2       11.8630   21.4240   35.1370 N.ar  304  HIS304     -0.2212
    121  N          6.2720   21.5110   39.2320 N.am  305  GLY305     -0.1957
    122  CA         5.5680   20.8690   40.3290 C.3   305  GLY305      0.1869
    123  C          4.1110   20.5680   40.0550 C.2   305  GLY305      0.2309
    124  O          3.7800   19.7480   39.1990 O.2   305  GLY305     -0.2863
@<TRIPOS>BOND
     1   120   119   ar
     2   120   118   ar
     3   119   117   ar
     4   118   116   ar
     5   117   116   ar
     6   116   115    1
     7   111   112    1
     8    53    51    1
     9   112   115    1
    10   112   113    1
    11    51    48    1
    12    51    52    1
    13     9     7   ar
    14     9    10   ar
    15    50    49    2
    16    48    49    1
    17    48    47    1
    18     7     6   ar
    19     1     2    1
    20   113   114    2
    21   113   121   am
    22    10    12   ar
    23    10     8   ar
    24    12    14   ar
    25    47    41   am
    26   124   123    2
    27   121   122    1
    28   106   105    2
    29     6     8   ar
    30     6     5    1
    31    33    35   ar
    32    33    32   ar
    33    35    37   ar
    34    27    28    1
    35     8    11   ar
    36     2     5    1
    37     2     3    1
    38   123   122    1
    39    14    13   ar
    40    41    42    2
    41    41    40    1
    42   105   104    1
    43     3     4    2
    44    32    31    1
    45    32    34   ar
    46    31    28    1
    47    37    38    1
    48    37    36   ar
    49    28    29    1
    50    11    13   ar
    51   104   107    1
    52   104   103    1
    53    40    39    1
    54    40    43    1
    55    45    44    1
    56    29    30    2
    57    34    36   ar
    58   109   108   ar
    59   107   108    1
    60    44    43    1
    61    44    46    1
    62   108   110   ar
    63   102   100    1
    64   101    99    1
    65    75    74    1
    66    84    85   ar
    67    84    82   ar
    68    19    16    1
    69    19    20    1
    70    22    20   ar
    71    22    24   ar
    72    15    16    1
    73    17    18    2
    74    17    16    1
    75    85    83   ar
    76    20    21   ar
    77    24    25   ar
    78    82    81   ar
    79    99   100    1
    80    99    96    1
    81    74    73    1
    82    83    81   ar
    83    98    97    2
    84    73    72    1
    85    21    23   ar
    86    81    80    1
    87    25    23   ar
    88    25    26    1
    89    94    92   ar
    90    97    96    1
    91    96    95    1
    92    72    71    1
    93    80    77    1
    94    92    93   ar
    95    92    91    1
    96    60    59   ar
    97    66    63    1
    98    61    59   ar
    99    71    68    1
   100    59    58    1
   101    77    76    1
   102    77    78    1
   103    91    90    1
   104    63    62    1
   105    63    64    1
   106    76    69   am
   107    70    69    2
   108    69    68    1
   109    62    56   am
   110    79    78    2
   111    68    67    1
   112    65    64    2
   113    58    55    1
   114    90    87    1
   115    89    88    2
   116    56    55    1
   117    56    57    2
   118    88    87    1
   119    55    54    1
   120    87    86    1
