@<TRIPOS>MOLECULE
tmp/1u2zC00.pdb
 210 205 0 0 0
SMALL
GASTEIGER

@<TRIPOS>ATOM
      1  N          6.9270  -24.4750   20.7460 N.3   177  ASN177     -0.1225
      2  CA         7.3230  -23.0810   20.5600 C.3   177  ASN177      0.1785
      3  C          8.1190  -22.8570   19.2840 C.2   177  ASN177      0.2597
      4  O          8.0230  -21.8050   18.6690 O.2   177  ASN177     -0.2718
      5  CB         8.1580  -22.5790   21.7460 C.3   177  ASN177      0.1169
      6  CG         7.3210  -22.2840   22.9700 C.2   177  ASN177      0.2627
      7  OD1        6.0930  -22.2270   22.9040 O.2   177  ASN177     -0.2716
      8  ND2        7.9860  -22.0760   24.0990 N.am  177  ASN177     -0.0877
      9  N          8.8910  -23.8540   18.8740 N.am  178  TYR178     -0.1962
     10  CA         9.7300  -23.7040   17.6890 C.3   178  TYR178      0.1771
     11  C          9.2410  -24.4090   16.4350 C.2   178  TYR178      0.2619
     12  O          9.9940  -24.5440   15.4700 O.2   178  TYR178     -0.2715
     13  CB        11.1530  -24.1470   18.0430 C.3   178  TYR178      0.0574
     14  CG        11.6170  -23.4860   19.3230 C.ar  178  TYR178     -0.0198
     15  CD1       11.8290  -22.1090   19.3750 C.ar  178  TYR178     -0.0009
     16  CD2       11.7340  -24.2150   20.5110 C.ar  178  TYR178     -0.0009
     17  CE1       12.1390  -21.4700   20.5740 C.ar  178  TYR178      0.0417
     18  CE2       12.0400  -23.5840   21.7170 C.ar  178  TYR178      0.0417
     19  CZ        12.2400  -22.2130   21.7420 C.ar  178  TYR178      0.1957
     20  OH        12.5260  -21.5790   22.9370 O.3   178  TYR178     -0.2866
     21  N          7.9860  -24.8570   16.4440 N.am  179  VAL179     -0.1963
     22  CA         7.4240  -25.5240   15.2750 C.3   179  VAL179      0.1727
     23  C          7.1530  -24.4580   14.2210 C.2   179  VAL179      0.2616
     24  O          6.4730  -23.4660   14.4820 O.2   179  VAL179     -0.2715
     25  CB         6.1130  -26.2760   15.6200 C.3   179  VAL179      0.0290
     26  CG1        5.4700  -26.8300   14.3520 C.3   179  VAL179      0.0023
     27  CG2        6.4180  -27.4280   16.5770 C.3   179  VAL179      0.0023
     28  N          7.7020  -24.6640   13.0300 N.am  180  TYR180     -0.1960
     29  CA         7.5580  -23.7110   11.9420 C.3   180  TYR180      0.1771
     30  C          6.1670  -23.7060   11.3120 C.2   180  TYR180      0.2620
     31  O          5.6240  -24.7500   10.9380 O.2   180  TYR180     -0.2715
     32  CB         8.6010  -24.0030   10.8670 C.3   180  TYR180      0.0574
     33  CG         8.6130  -23.0080    9.7310 C.ar  180  TYR180     -0.0198
     34  CD1        9.0260  -21.6930    9.9350 C.ar  180  TYR180     -0.0009
     35  CD2        8.2390  -23.3890    8.4460 C.ar  180  TYR180     -0.0009
     36  CE1        9.0700  -20.7800    8.8850 C.ar  180  TYR180      0.0417
     37  CE2        8.2800  -22.4870    7.3850 C.ar  180  TYR180      0.0417
     38  CZ         8.6970  -21.1860    7.6110 C.ar  180  TYR180      0.1957
     39  OH         8.7430  -20.2920    6.5650 O.3   180  TYR180     -0.2866
     40  N          5.5950  -22.5110   11.2060 N.am  181  GLY181     -0.1940
     41  CA         4.2870  -22.3390   10.5970 C.3   181  GLY181      0.2014
     42  C          4.3610  -21.0860    9.7400 C.2   181  GLY181      0.2639
     43  O          5.0290  -20.1290   10.1120 O.2   181  GLY181     -0.2714
     44  N          3.6790  -21.0720    8.6020 N.am  182  GLU182     -0.1963
     45  CA         3.7300  -19.9080    7.7220 C.3   182  GLU182      0.1733
     46  C          2.4110  -19.1770    7.5150 C.2   182  GLU182      0.2616
     47  O          1.3610  -19.8000    7.3440 O.2   182  GLU182     -0.2715
     48  CB         4.2550  -20.3100    6.3380 C.3   182  GLU182      0.0429
     49  CG         5.7620  -20.2880    6.1560 C.3   182  GLU182      0.1163
     50  CD         6.1790  -20.7130    4.7470 C.2   182  GLU182      0.3649
     51  OE1        5.3190  -20.7010    3.8420 O.co2 182  GLU182     -0.2457
     52  OE2        7.3660  -21.0520    4.5430 O.co2 182  GLU182     -0.2457
     53  N          2.4690  -17.8510    7.5470 N.am  183  LEU183     -0.1977
     54  CA         1.2940  -17.0430    7.2530 C.3   183  LEU183      0.1596
     55  C          1.4790  -16.8250    5.7470 C.2   183  LEU183      0.2287
     56  O          2.5620  -16.4320    5.3040 O.2   183  LEU183     -0.2864
     57  CB         1.3260  -15.7060    8.0110 C.3   183  LEU183      0.0297
     58  CG         1.4560  -15.7190    9.5460 C.3   183  LEU183      0.0022
     59  CD1        1.0190  -14.3670   10.0940 C.3   183  LEU183      0.0001
     60  CD2        0.6020  -16.8070   10.1610 C.3   183  LEU183      0.0001
     61  N          8.2570   -8.4760   13.0750 N.3   205  ASP205     -0.1225
     62  CA         7.7030   -9.8150   13.1290 C.3   205  ASP205      0.1805
     63  C          8.4920  -10.6060   14.1980 C.2   205  ASP205      0.2598
     64  O          9.6710  -10.9170   14.0190 O.2   205  ASP205     -0.2718
     65  CB         7.8000  -10.5050   11.7690 C.3   205  ASP205      0.1424
     66  CG         7.1430  -11.8900   11.7660 C.2   205  ASP205      0.3668
     67  OD1        6.4500  -12.2320   12.7570 O.co2 205  ASP205     -0.2456
     68  OD2        7.3050  -12.6450   10.7740 O.co2 205  ASP205     -0.2456
     69  N          7.8380  -10.9000   15.3180 N.am  206  LEU206     -0.1966
     70  CA         8.4450  -11.6510   16.4160 C.3   206  LEU206      0.1728
     71  C          8.3560  -13.1230   16.0670 C.2   206  LEU206      0.2617
     72  O          7.2760  -13.7010   16.1270 O.2   206  LEU206     -0.2715
     73  CB         7.6860  -11.3800   17.7110 C.3   206  LEU206      0.0311
     74  CG         7.7640   -9.9350   18.2070 C.3   206  LEU206      0.0022
     75  CD1        6.7700   -9.7320   19.3610 C.3   206  LEU206      0.0001
     76  CD2        9.1850   -9.6280   18.6860 C.3   206  LEU206      0.0001
     77  N          9.4940  -13.7190   15.7080 N.am  207  GLY207     -0.1940
     78  CA         9.5100  -15.1170   15.2940 C.3   207  GLY207      0.2014
     79  C          9.2660  -15.0910   13.7890 C.2   207  GLY207      0.2640
     80  O          8.2580  -15.6070   13.2910 O.2   207  GLY207     -0.2714
     81  N         10.2150  -14.5000   13.0640 N.am  208  SER208     -0.1935
     82  CA        10.1130  -14.3130   11.6100 C.3   208  SER208      0.2055
     83  C         10.3060  -15.4940   10.6670 C.2   208  SER208      0.2644
     84  O         10.1800  -15.3300    9.4590 O.2   208  SER208     -0.2714
     85  CB        11.0430  -13.1630   11.1850 C.3   208  SER208      0.2130
     86  OG        12.3240  -13.2740   11.7940 O.3   208  SER208     -0.2179
     87  N         10.5940  -16.6810   11.1920 N.am  209  GLY209     -0.1939
     88  CA        10.7820  -17.8350   10.3200 C.3   209  GLY209      0.2014
     89  C         11.8910  -17.6140    9.3040 C.2   209  GLY209      0.2638
     90  O         13.0540  -17.4370    9.6870 O.2   209  GLY209     -0.2714
     91  N         11.5490  -17.6450    8.0130 N.am  210  VAL210     -0.1977
     92  CA        12.5440  -17.3900    6.9710 C.3   210  VAL210      0.1596
     93  C         12.3990  -15.9830    6.3830 C.2   210  VAL210      0.2287
     94  O         12.9590  -15.6820    5.3320 O.2   210  VAL210     -0.2864
     95  CB        12.5010  -18.4260    5.8160 C.3   210  VAL210      0.0276
     96  CG1       12.8490  -19.8040    6.3620 C.3   210  VAL210      0.0022
     97  CG2       11.1420  -18.4360    5.1420 C.3   210  VAL210      0.0022
     98  N          9.5080  -14.3060    5.2930 N.3   212  ASN212     -0.1225
     99  CA         8.4460  -14.0290    4.3210 C.3   212  ASN212      0.1785
    100  C          7.6030  -12.8070    4.6670 C.2   212  ASN212      0.2597
    101  O          7.3570  -11.9520    3.8120 O.2   212  ASN212     -0.2718
    102  CB         7.5110  -15.2360    4.1690 C.3   212  ASN212      0.1169
    103  CG         8.2550  -16.5130    3.8170 C.2   212  ASN212      0.2627
    104  OD1        9.2780  -16.4720    3.1290 O.2   212  ASN212     -0.2716
    105  ND2        7.7370  -17.6590    4.2730 N.am  212  ASN212     -0.0877
    106  N          7.1550  -12.7320    5.9160 N.am  213  CYS213     -0.1970
    107  CA         6.3170  -11.6270    6.3690 C.3   213  CYS213      0.1712
    108  C          7.0620  -10.3080    6.3400 C.2   213  CYS213      0.2296
    109  O          6.4950   -9.2840    5.9720 O.2   213  CYS213     -0.2864
    110  CB         5.8030  -11.9160    7.7760 C.3   213  CYS213      0.0983
    111  SG         4.9960  -13.5240    7.8990 S.3   213  CYS213     -0.0798
    112  N         12.8300  -11.1710   13.9650 N.3   229  CYS229     -0.1221
    113  CA        13.7380  -11.8660   14.8750 C.3   229  CYS229      0.1808
    114  C         13.3590  -13.3370   14.8630 C.2   229  CYS229      0.2601
    115  O         12.1920  -13.6880   15.0210 O.2   229  CYS229     -0.2717
    116  CB        13.6400  -11.3350   16.3040 C.3   229  CYS229      0.0970
    117  SG        14.6130  -12.3340   17.5300 S.3   229  CYS229     -0.0800
    118  N         14.3460  -14.1990   14.6680 N.am  230  GLU230     -0.1965
    119  CA        14.1090  -15.6290   14.6220 C.3   230  GLU230      0.1733
    120  C         15.2560  -16.3390   15.3240 C.2   230  GLU230      0.2616
    121  O         16.4280  -16.0240   15.1130 O.2   230  GLU230     -0.2715
    122  CB        14.0080  -16.1050   13.1730 C.3   230  GLU230      0.0429
    123  CG        13.9730  -17.6130   12.9980 C.3   230  GLU230      0.1163
    124  CD        12.8230  -18.2910   13.7390 C.2   230  GLU230      0.3649
    125  OE1       11.6470  -17.8950   13.5220 O.co2 230  GLU230     -0.2457
    126  OE2       13.0880  -19.2340   14.5320 O.co2 230  GLU230     -0.2457
    127  N         14.9080  -17.3270   16.1360 N.am  231  ILE231     -0.1963
    128  CA        15.9010  -18.0460   16.9090 C.3   231  ILE231      0.1727
    129  C         16.4900  -19.3060   16.2670 C.2   231  ILE231      0.2616
    130  O         17.6680  -19.5980   16.4560 O.2   231  ILE231     -0.2715
    131  CB        15.3100  -18.3930   18.2830 C.3   231  ILE231      0.0290
    132  CG1       16.4180  -18.8040   19.2520 C.3   231  ILE231      0.0022
    133  CG2       14.2520  -19.4970   18.1260 C.3   231  ILE231      0.0023
    134  CD1       15.9170  -19.0560   20.6530 C.3   231  ILE231      0.0001
    135  N         15.6890  -20.0440   15.5040 N.am  232  MET232     -0.1977
    136  CA        16.1670  -21.2770   14.8810 C.3   232  MET232      0.1605
    137  C         17.3140  -21.0670   13.8940 C.2   232  MET232      0.2287
    138  O         17.2790  -20.1550   13.0620 O.2   232  MET232     -0.2864
    139  CB        15.0160  -21.9980   14.1780 C.3   232  MET232      0.0413
    140  CG        13.9130  -22.4560   15.1090 C.3   232  MET232      0.0598
    141  SD        14.4910  -23.6530   16.3690 S.3   232  MET232     -0.1393
    142  CE        14.6480  -25.0790   15.4080 C.3   232  MET232      0.0692
    143  N         18.8750  -15.8190   17.4180 N.3   266  LYS266     -0.1231
    144  CA        18.7450  -15.2040   18.7340 C.3   266  LYS266      0.1693
    145  C         17.2800  -15.2070   19.1650 C.2   266  LYS266      0.2593
    146  O         16.3690  -15.2030   18.3310 O.2   266  LYS266     -0.2718
    147  CB        19.2200  -13.7550   18.6630 C.3   266  LYS266      0.0285
    148  CG        20.2040  -13.3150   19.7180 C.3   266  LYS266      0.0035
    149  CD        20.3650  -11.8030   19.6490 C.3   266  LYS266      0.0206
    150  CE        21.7270  -11.3440   20.1470 C.3   266  LYS266      0.1093
    151  NZ        21.8670   -9.8580   20.0510 N.3   266  LYS266     -0.1314
    152  N         17.0610  -15.2120   20.4740 N.am  267  SER267     -0.1938
    153  CA        15.7130  -15.1690   21.0190 C.3   267  SER267      0.2055
    154  C         15.2270  -13.7110   20.9890 C.2   267  SER267      0.2643
    155  O         16.0330  -12.7910   21.1340 O.2   267  SER267     -0.2714
    156  CB        15.7380  -15.6590   22.4700 C.3   267  SER267      0.2130
    157  OG        14.4900  -15.4490   23.1070 O.3   267  SER267     -0.2179
    158  N         13.9270  -13.4870   20.7970 N.am  268  PHE268     -0.1959
    159  CA        13.4480  -12.1080   20.8350 C.3   268  PHE268      0.1771
    160  C         13.2220  -11.7010   22.3000 C.2   268  PHE268      0.2619
    161  O         12.9070  -10.5490   22.6090 O.2   268  PHE268     -0.2715
    162  CB        12.1720  -11.9020   19.9830 C.3   268  PHE268      0.0574
    163  CG        11.0840  -12.9150   20.2180 C.ar  268  PHE268     -0.0200
    164  CD1       10.5210  -13.0800   21.4810 C.ar  268  PHE268     -0.0042
    165  CD2       10.5800  -13.6710   19.1500 C.ar  268  PHE268     -0.0042
    166  CE1        9.4630  -13.9860   21.6800 C.ar  268  PHE268     -0.0003
    167  CE2        9.5300  -14.5730   19.3340 C.ar  268  PHE268     -0.0003
    168  CZ         8.9670  -14.7320   20.6040 C.ar  268  PHE268     -0.0000
    169  N         13.4100  -12.6600   23.2010 N.am  269  VAL269     -0.1977
    170  CA        13.2820  -12.4110   24.6380 C.3   269  VAL269      0.1596
    171  C         14.6340  -11.8990   25.1420 C.2   269  VAL269      0.2287
    172  O         15.6660  -12.5300   24.9050 O.2   269  VAL269     -0.2864
    173  CB        12.9320  -13.7110   25.4110 C.3   269  VAL269      0.0276
    174  CG1       12.8230  -13.4190   26.9090 C.3   269  VAL269      0.0022
    175  CG2       11.6190  -14.2900   24.8910 C.3   269  VAL269      0.0022
    176  N          3.7760   -8.2000   14.3020 N.3   285  LEU285     -0.1245
    177  CA         3.1930   -9.4750   13.9400 C.3   285  LEU285      0.1561
    178  C          3.8210  -10.5830   14.7820 C.2   285  LEU285      0.2260
    179  O          5.0420  -10.6180   14.9720 O.2   285  LEU285     -0.2867
    180  CB         3.4370   -9.7510   12.4500 C.3   285  LEU285      0.0270
    181  CG         3.0440  -11.1430   11.9600 C.3   285  LEU285      0.0019
    182  CD1        1.5320  -11.3040   12.0590 C.3   285  LEU285      0.0001
    183  CD2        3.4930  -11.3340   10.5210 C.3   285  LEU285      0.0001
    184  N          3.1250  -14.8090   15.2390 N.3   287  ASN287     -0.1240
    185  CA         2.3790  -16.0360   15.0440 C.3   287  ASN287      0.1653
    186  C          2.5570  -16.8850   16.2940 C.2   287  ASN287      0.2266
    187  O          3.4340  -17.7500   16.3610 O.2   287  ASN287     -0.2867
    188  CB         2.8850  -16.8070   13.8210 C.3   287  ASN287      0.1155
    189  CG         2.3020  -18.2100   13.7540 C.2   287  ASN287      0.2627
    190  OD1        1.1870  -18.4410   14.2160 O.2   287  ASN287     -0.2716
    191  ND2        3.0440  -19.1440   13.1780 N.am  287  ASN287     -0.0877
    192  N          2.5260  -21.1400   20.5240 N.3   291  PHE291     -0.1241
    193  CA         3.2620  -20.6680   21.6910 C.3   291  PHE291      0.1605
    194  C          2.6220  -21.1780   22.9830 C.2   291  PHE291      0.2264
    195  O          1.3970  -21.1950   23.1030 O.2   291  PHE291     -0.2867
    196  CB         3.2840  -19.1300   21.7110 C.3   291  PHE291      0.0534
    197  CG         4.2460  -18.5060   20.7300 C.ar  291  PHE291     -0.0203
    198  CD1        4.8210  -19.2540   19.7050 C.ar  291  PHE291     -0.0042
    199  CD2        4.5670  -17.1570   20.8300 C.ar  291  PHE291     -0.0042
    200  CE1        5.7040  -18.6630   18.7890 C.ar  291  PHE291     -0.0003
    201  CE2        5.4430  -16.5590   19.9240 C.ar  291  PHE291     -0.0003
    202  CZ         6.0110  -17.3150   18.9050 C.ar  291  PHE291     -0.0000
    203  N          5.8210  -18.6740   27.1200 N.3   295  LEU295     -0.1245
    204  CA         6.3030  -17.8310   26.0210 C.3   295  LEU295      0.1561
    205  C          5.3440  -16.6570   25.8270 C.2   295  LEU295      0.2260
    206  O          5.7760  -15.5180   25.6650 O.2   295  LEU295     -0.2867
    207  CB         6.4260  -18.6290   24.7210 C.3   295  LEU295      0.0270
    208  CG         6.9000  -17.8450   23.4870 C.3   295  LEU295      0.0019
    209  CD1        8.1520  -17.0450   23.8080 C.3   295  LEU295      0.0001
    210  CD2        7.1510  -18.8150   22.3410 C.3   295  LEU295      0.0001
@<TRIPOS>BOND
     1   104   103    2
     2   101   100    2
     3   103   102    1
     4   103   105   am
     5    51    50   ar
     6   102    99    1
     7    99   100    1
     8    99    98    1
     9    52    50   ar
    10   100   106   am
    11    50    49    1
    12    97    95    1
    13    56    55    2
    14    94    93    2
    15    55    54    1
    16    95    96    1
    17    95    92    1
    18   106   107    1
    19   109   108    2
    20    49    48    1
    21    48    45    1
    22   108   107    1
    23   107   110    1
    24    93    92    1
    25    39    38    1
    26    92    91    1
    27    54    53    1
    28    54    57    1
    29    47    46    2
    30    37    38   ar
    31    37    35   ar
    32    46    53   am
    33    46    45    1
    34    38    36   ar
    35    45    44    1
    36   110   111    1
    37    57    58    1
    38    91    89   am
    39    35    33   ar
    40    44    42   am
    41    36    34   ar
    42    89    90    2
    43    89    88    1
    44    84    83    2
    45    58    59    1
    46    58    60    1
    47    33    34   ar
    48    33    32    1
    49    42    43    2
    50    42    41    1
    51    88    87    1
    52   183   181    1
    53    41    40    1
    54    83    87   am
    55    83    82    1
    56    68    66   ar
    57    32    29    1
    58    31    30    2
    59    85    82    1
    60    85    86    1
    61    40    30   am
    62    30    29    1
    63    82    81    1
    64    66    65    1
    65    66    67   ar
    66    65    62    1
    67    29    28    1
    68   181   182    1
    69   181   180    1
    70   180   177    1
    71   123   122    1
    72   123   124    1
    73    28    23   am
    74   138   137    2
    75    81    79   am
    76    61    62    1
    77    62    63    1
    78   122   119    1
    79   191   189   am
    80    80    79    2
    81   125   124   ar
    82   124   126   ar
    83   189   188    1
    84   189   190    2
    85    79    78    1
    86   188   185    1
    87   137   136    1
    88   177   176    1
    89   177   178    1
    90   112   113    1
    91    64    63    2
    92   139   136    1
    93   139   140    1
    94    63    69   am
    95    23    24    2
    96    23    22    1
    97    26    25    1
    98   119   118    1
    99   119   120    1
   100   118   114   am
   101   178   179    2
   102   114   113    1
   103   114   115    2
   104   113   116    1
   105   136   135    1
   106   185   184    1
   107   185   186    1
   108   140   141    1
   109   121   120    2
   110    22    25    1
   111    22    21    1
   112    78    77    1
   113    69    70    1
   114   120   127   am
   115   142   141    1
   116    12    11    2
   117   135   129   am
   118    25    27    1
   119    77    71   am
   120    71    72    2
   121    71    70    1
   122   127   128    1
   123   129   130    2
   124   129   128    1
   125   186   187    2
   126   116   117    1
   127    70    73    1
   128    11    21   am
   129    11    10    1
   130   128   131    1
   131   143   144    1
   132    10    13    1
   133    10     9    1
   134    73    74    1
   135    13    14    1
   136   133   131    1
   137    74    76    1
   138    74    75    1
   139   131   132    1
   140   146   145    2
   141   147   144    1
   142   147   148    1
   143     4     3    2
   144   144   145    1
   145   200   202   ar
   146   200   198   ar
   147     9     3   am
   148   202   201   ar
   149   165   167   ar
   150   165   163   ar
   151   145   152   am
   152   132   134    1
   153     3     2    1
   154    14    15   ar
   155    14    16   ar
   156   167   168   ar
   157    15    17   ar
   158   149   148    1
   159   149   150    1
   160   198   197   ar
   161   201   199   ar
   162   162   163    1
   163   162   159    1
   164   151   150    1
   165   163   164   ar
   166   152   153    1
   167    16    18   ar
   168   192   193    1
   169     2     1    1
   170     2     5    1
   171    17    19   ar
   172   168   166   ar
   173   197   199   ar
   174   197   196    1
   175   158   159    1
   176   158   154   am
   177   159   160    1
   178   154   153    1
   179   154   155    2
   180   153   156    1
   181   164   166   ar
   182   193   196    1
   183   193   194    1
   184    18    19   ar
   185    19    20    1
   186     5     6    1
   187   160   161    2
   188   160   169   am
   189   210   208    1
   190   156   157    1
   191     7     6    2
   192     6     8   am
   193   194   195    2
   194   169   170    1
   195   208   209    1
   196   208   207    1
   197   170   171    1
   198   170   173    1
   199   207   204    1
   200   175   173    1
   201   172   171    2
   202   173   174    1
   203   206   205    2
   204   205   204    1
   205   204   203    1
