@<TRIPOS>MOLECULE
tmp/1u30A00.pdb
 181 177 0 0 0
SMALL
GASTEIGER

@<TRIPOS>ATOM
      1  N         19.6280   23.5750   38.2860 N.3    57  TRP57      -0.1227
      2  CA        19.1800   23.7410   39.6700 C.3    57  TRP57       0.1737
      3  C         18.8400   22.3720   40.3080 C.2    57  TRP57       0.2595
      4  O         19.1320   22.1350   41.4910 O.2    57  TRP57      -0.2718
      5  CB        17.9710   24.6970   39.7470 C.3    57  TRP57       0.0564
      6  CG        16.7370   24.2420   38.9790 C.ar   57  TRP57       0.0003
      7  CD1       16.4840   24.4460   37.6530 C.ar   57  TRP57       0.0946
      8  CD2       15.6770   23.3920   39.4620 C.ar   57  TRP57       0.0152
      9  NE1       15.3600   23.7530   37.2670 N.ar   57  TRP57      -0.2442
     10  CE2       14.8430   23.0950   38.3530 C.ar   57  TRP57       0.0810
     11  CE3       15.3580   22.8370   40.7240 C.ar   57  TRP57       0.0012
     12  CZ2       13.7050   22.2630   38.4580 C.ar   57  TRP57       0.0191
     13  CZ3       14.2210   22.0010   40.8320 C.ar   57  TRP57       0.0001
     14  CH2       13.4120   21.7270   39.6980 C.ar   57  TRP57       0.0015
     15  N         18.2940   21.4670   39.4780 N.am   58  TRP58      -0.1976
     16  CA        17.8730   20.1310   39.9170 C.3    58  TRP58       0.1640
     17  C         18.9080   19.0990   40.3050 C.2    58  TRP58       0.2290
     18  O         18.5540   18.0500   40.8610 O.2    58  TRP58      -0.2864
     19  CB        16.7990   19.5150   39.0010 C.3    58  TRP58       0.0576
     20  CG        17.0080   19.5300   37.5080 C.ar   58  TRP58       0.0006
     21  CD1       16.3630   20.3360   36.6090 C.ar   58  TRP58       0.0946
     22  CD2       17.8070   18.6260   36.7290 C.ar   58  TRP58       0.0152
     23  NE1       16.6940   19.9880   35.3250 N.ar   58  TRP58      -0.2442
     24  CE2       17.5800   18.9440   35.3610 C.ar   58  TRP58       0.0810
     25  CE3       18.6950   17.5740   37.0470 C.ar   58  TRP58       0.0012
     26  CZ2       18.2100   18.2460   34.3020 C.ar   58  TRP58       0.0191
     27  CZ3       19.3250   16.8750   35.9950 C.ar   58  TRP58       0.0001
     28  CH2       19.0750   17.2200   34.6370 C.ar   58  TRP58       0.0015
     29  N         18.8980   17.9610   43.9430 N.3    61  TYR61      -0.1227
     30  CA        17.8920   17.0060   44.3910 C.3    61  TYR61       0.1736
     31  C         18.3340   15.5750   44.0690 C.2    61  TYR61       0.2595
     32  O         17.5330   14.6340   44.0540 O.2    61  TYR61      -0.2718
     33  CB        16.5190   17.3680   43.8070 C.3    61  TYR61       0.0548
     34  CG        15.9820   18.6400   44.4230 C.ar   61  TYR61      -0.0200
     35  CD1       15.4160   18.6270   45.7180 C.ar   61  TYR61      -0.0009
     36  CD2       16.1440   19.8890   43.7770 C.ar   61  TYR61      -0.0009
     37  CE1       15.0330   19.8330   46.3690 C.ar   61  TYR61       0.0417
     38  CE2       15.7650   21.1050   44.4170 C.ar   61  TYR61       0.0417
     39  CZ        15.2150   21.0600   45.7130 C.ar   61  TYR61       0.1957
     40  OH        14.8640   22.2180   46.3550 O.3    61  TYR61      -0.2866
     41  N         19.6470   15.4270   43.8640 N.am   62  GLN62      -0.1979
     42  CA        20.2980   14.1480   43.5720 C.3    62  GLN62       0.1601
     43  C         21.4860   13.9370   44.5440 C.2    62  GLN62       0.2287
     44  O         22.6440   14.1270   44.1590 O.2    62  GLN62      -0.2864
     45  CB        20.7640   14.1100   42.1020 C.3    62  GLN62       0.0394
     46  CG        19.6310   13.8480   41.1080 C.3    62  GLN62       0.0908
     47  CD        20.1010   13.4650   39.7150 C.2    62  GLN62       0.2608
     48  OE1       20.9610   12.6010   39.5560 O.2    62  GLN62      -0.2717
     49  NE2       19.5110   14.0900   38.6910 N.am   62  GLN62      -0.0878
     50  N         15.4020    9.6760   48.4370 N.3   100  HIS100     -0.1241
     51  CA        16.2640    9.0780   47.4480 C.3   100  HIS100      0.1621
     52  C         17.6890    9.5880   47.4420 C.2   100  HIS100      0.2264
     53  O         18.0310   10.5530   48.1310 O.2   100  HIS100     -0.2867
     54  CB        15.6540    9.4040   46.0600 C.3   100  HIS100      0.0745
     55  CG        15.3390   10.8620   45.8660 C.ar  100  HIS100      0.0817
     56  ND1       14.1270   11.4110   46.2290 N.ar  100  HIS100     -0.2268
     57  CD2       16.0900   11.8910   45.4000 C.ar  100  HIS100      0.1154
     58  CE1       14.1450   12.7110   45.9980 C.ar  100  HIS100      0.1986
     59  NE2       15.3260   13.0300   45.4940 N.ar  100  HIS100     -0.2212
     60  N         19.9830    9.6190   40.3690 N.3   103  GLY103     -0.1225
     61  CA        19.3670    8.8460   39.2970 C.3   103  GLY103      0.1811
     62  C         20.1830    7.6060   38.9810 C.2   103  GLY103      0.2280
     63  O         21.4140    7.6520   39.0500 O.2   103  GLY103     -0.2866
     64  N         20.6680    6.2200   36.1600 N.3   105  ALA105     -0.1231
     65  CA        21.3280    6.3870   34.8690 C.3   105  ALA105      0.1694
     66  C         22.5980    7.2440   34.9540 C.2   105  ALA105      0.2591
     67  O         23.3690    7.3000   33.9950 O.2   105  ALA105     -0.2718
     68  CB        20.3510    6.9790   33.8550 C.3   105  ALA105      0.0304
     69  N         22.8210    7.8890   36.1040 N.am  106  VAL106     -0.1980
     70  CA        24.0040    8.7380   36.3310 C.3   106  VAL106      0.1595
     71  C         25.2880    7.8850   36.3670 C.2   106  VAL106      0.2287
     72  O         25.2940    6.7890   36.9250 O.2   106  VAL106     -0.2864
     73  CB        23.8640    9.5750   37.6570 C.3   106  VAL106      0.0276
     74  CG1       25.1060   10.4340   37.9110 C.3   106  VAL106      0.0022
     75  CG2       22.6260   10.4680   37.5910 C.3   106  VAL106      0.0022
     76  N         11.1680    7.7050   41.7110 N.3   161  LEU161     -0.1231
     77  CA        10.5570    8.9120   41.1350 C.3   161  LEU161      0.1693
     78  C         11.5060    9.3420   40.0170 C.2   161  LEU161      0.2593
     79  O         12.6250    9.7600   40.2960 O.2   161  LEU161     -0.2718
     80  CB        10.4060   10.0130   42.2020 C.3   161  LEU161      0.0284
     81  CG        10.0410   11.4580   41.8210 C.3   161  LEU161      0.0019
     82  CD1        8.6550   11.5710   41.1840 C.3   161  LEU161      0.0001
     83  CD2       10.1420   12.3120   43.0800 C.3   161  LEU161      0.0001
     84  N         11.0670    9.1630   38.7660 N.am  162  THR162     -0.1939
     85  CA        11.8420    9.4600   37.5440 C.3   162  THR162      0.2028
     86  C         13.3040    8.9750   37.5840 C.2   162  THR162      0.2643
     87  O         14.2450    9.7550   37.3890 O.2   162  THR162     -0.2714
     88  CB        11.7520   10.9610   37.0790 C.3   162  THR162      0.1808
     89  OG1       12.2790   11.8340   38.0900 O.3   162  THR162     -0.2208
     90  CG2       10.3120   11.3370   36.7690 C.3   162  THR162      0.0379
     91  N         13.4680    7.6990   37.9390 N.am  163  GLY163     -0.1939
     92  CA        14.7860    7.0830   38.0050 C.3   163  GLY163      0.2014
     93  C         15.6290    7.2870   39.2560 C.2   163  GLY163      0.2638
     94  O         16.6840    6.6670   39.3750 O.2   163  GLY163     -0.2714
     95  N         15.1820    8.1460   40.1740 N.am  164  LEU164     -0.1977
     96  CA        15.9030    8.4300   41.4220 C.3   164  LEU164      0.1596
     97  C         15.8870    7.2340   42.3790 C.2   164  LEU164      0.2287
     98  O         14.8200    6.8250   42.8440 O.2   164  LEU164     -0.2864
     99  CB        15.3030    9.6640   42.1150 C.3   164  LEU164      0.0297
    100  CG        15.6910   11.1320   41.8550 C.3   164  LEU164      0.0022
    101  CD1       16.7340   11.3260   40.7960 C.3   164  LEU164      0.0001
    102  CD2       14.4520   11.9610   41.5820 C.3   164  LEU164      0.0001
    103  N         12.1800   20.9940   55.5460 N.3   194  ARG194     -0.1245
    104  CA        11.2430   20.8150   54.4450 C.3   194  ARG194      0.1563
    105  C         11.5620   19.3700   54.0770 C.2   194  ARG194      0.2260
    106  O         12.7180   19.0570   53.7650 O.2   194  ARG194     -0.2867
    107  CB        11.5620   21.6910   53.2180 C.3   194  ARG194      0.0307
    108  CG        10.6050   21.4190   52.0150 C.3   194  ARG194      0.0489
    109  CD        11.1050   22.0000   50.6980 C.3   194  ARG194      0.2205
    110  NE        10.3090   21.5720   49.5410 N.pl3 194  ARG194     -0.0865
    111  CZ        10.7150   20.7170   48.5990 C.cat 194  ARG194      0.5346
    112  NH1       11.9220   20.1650   48.6470 N.pl3 194  ARG194      0.1354
    113  NH2        9.9220   20.4430   47.5710 N.pl3 194  ARG194      0.1354
    114  N         11.4140   16.8590   51.5240 N.3   196  ASP196     -0.1225
    115  CA        11.2460   16.7070   50.0820 C.3   196  ASP196      0.1805
    116  C         10.6100   15.3620   49.7190 C.2   196  ASP196      0.2597
    117  O         10.8530   14.3540   50.3960 O.2   196  ASP196     -0.2718
    118  CB        12.6120   16.8510   49.3920 C.3   196  ASP196      0.1424
    119  CG        12.5270   16.7460   47.8720 C.2   196  ASP196      0.3668
    120  OD1       11.8890   17.6190   47.2600 O.co2 196  ASP196     -0.2456
    121  OD2       13.0740   15.7810   47.3010 O.co2 196  ASP196     -0.2456
    122  N          9.7560   15.3900   48.6860 N.am  197  ALA197     -0.1979
    123  CA         9.0590   14.2130   48.1410 C.3   197  ALA197      0.1597
    124  C          8.4060   13.3120   49.2040 C.2   197  ALA197      0.2287
    125  O          8.5770   12.0910   49.1880 O.2   197  ALA197     -0.2864
    126  CB        10.0330   13.3960   47.2320 C.3   197  ALA197      0.0319
    127  N          6.1220   10.4010   48.3500 N.3   200  HIS200     -0.1241
    128  CA         6.8490    9.1990   47.9580 C.3   200  HIS200      0.1621
    129  C          7.4500    8.3970   49.1120 C.2   200  HIS200      0.2264
    130  O          8.2120    7.4420   48.8910 O.2   200  HIS200     -0.2867
    131  CB         7.9050    9.5760   46.9160 C.3   200  HIS200      0.0745
    132  CG         7.3370   10.3250   45.7510 C.ar  200  HIS200      0.0817
    133  ND1        6.7070    9.6960   44.6990 N.ar  200  HIS200     -0.2268
    134  CD2        7.2320   11.6520   45.5130 C.ar  200  HIS200      0.1154
    135  CE1        6.2340   10.6050   43.8650 C.ar  200  HIS200      0.1986
    136  NE2        6.5400   11.8000   44.3360 N.ar  200  HIS200     -0.2212
    137  N          6.4510   18.0710   52.0270 N.3   232  GLU232     -0.1245
    138  CA         6.0430   18.3970   50.6670 C.3   232  GLU232      0.1567
    139  C          5.2300   17.2370   50.1050 C.2   232  GLU232      0.2260
    140  O          5.7710   16.1760   49.7840 O.2   232  GLU232     -0.2867
    141  CB         7.2380   18.7170   49.7530 C.3   232  GLU232      0.0388
    142  CG         6.8280   19.3070   48.3940 C.3   232  GLU232      0.1160
    143  CD         7.3470   18.5150   47.1920 C.2   232  GLU232      0.3649
    144  OE1        7.2890   17.2660   47.1970 O.co2 232  GLU232     -0.2457
    145  OE2        7.8130   19.1440   46.2220 O.co2 232  GLU232     -0.2457
    146  N          2.2870   16.8020   47.3150 N.3   234  ILE234     -0.1245
    147  CA         1.5590   17.4350   46.2160 C.3   234  ILE234      0.1561
    148  C          0.2240   16.6840   46.0790 C.2   234  ILE234      0.2260
    149  O          0.1680   15.5740   45.5470 O.2   234  ILE234     -0.2867
    150  CB         2.3710   17.4100   44.8810 C.3   234  ILE234      0.0252
    151  CG1        3.8070   17.9070   45.1220 C.3   234  ILE234      0.0019
    152  CG2        1.6810   18.3010   43.8530 C.3   234  ILE234      0.0019
    153  CD1        4.7270   17.9340   43.8970 C.3   234  ILE234      0.0001
    154  N          9.9480   26.7390   44.0510 N.3   298  HIS298     -0.1226
    155  CA        11.0500   26.5330   43.1080 C.3   298  HIS298      0.1752
    156  C         10.6960   25.6570   41.8900 C.2   298  HIS298      0.2596
    157  O         11.2540   25.8380   40.8060 O.2   298  HIS298     -0.2718
    158  CB        12.2970   26.0050   43.8460 C.3   298  HIS298      0.0759
    159  CG        12.2080   24.5730   44.2830 C.ar  298  HIS298      0.0818
    160  ND1       11.5600   24.1850   45.4340 N.ar  298  HIS298     -0.2268
    161  CD2       12.7000   23.4400   43.7270 C.ar  298  HIS298      0.1154
    162  CE1       11.6540   22.8730   45.5680 C.ar  298  HIS298      0.1986
    163  NE2       12.3420   22.3970   44.5450 N.ar  298  HIS298     -0.2212
    164  N          9.7600   24.7270   42.0950 N.am  299  ASP299     -0.1974
    165  CA         9.2940   23.8170   41.0580 C.3   299  ASP299      0.1709
    166  C          8.2950   24.4080   40.0650 C.2   299  ASP299      0.2293
    167  O          8.6030   24.5430   38.8730 O.2   299  ASP299     -0.2864
    168  CB         8.6530   22.5850   41.6860 C.3   299  ASP299      0.1436
    169  CG         9.6550   21.5310   42.0930 C.2   299  ASP299      0.3671
    170  OD1       10.8440   21.5850   41.7070 O.co2 299  ASP299     -0.2456
    171  OD2        9.2240   20.6060   42.7950 O.co2 299  ASP299     -0.2456
    172  N          7.7800   22.6510   36.8910 N.3   304  HIS304     -0.1241
    173  CA         8.2940   21.3370   37.3190 C.3   304  HIS304      0.1621
    174  C          7.5220   20.5340   38.3710 C.2   304  HIS304      0.2264
    175  O          7.8410   19.3580   38.6120 O.2   304  HIS304     -0.2867
    176  CB         9.7540   21.4490   37.7610 C.3   304  HIS304      0.0745
    177  CG        10.7420   21.2050   36.6630 C.ar  304  HIS304      0.0817
    178  ND1       11.5700   20.1040   36.6430 N.ar  304  HIS304     -0.2268
    179  CD2       11.0600   21.9360   35.5690 C.ar  304  HIS304      0.1154
    180  CE1       12.3580   20.1690   35.5860 C.ar  304  HIS304      0.1986
    181  NE2       12.0700   21.2710   34.9180 N.ar  304  HIS304     -0.2212
@<TRIPOS>BOND
     1    68    65    1
     2    67    66    2
     3    26    28   ar
     4    26    24   ar
     5    28    27   ar
     6    65    66    1
     7    65    64    1
     8   181   179   ar
     9   181   180   ar
    10    66    69   am
    11    23    24   ar
    12    23    21   ar
    13    24    22   ar
    14   179   177   ar
    15   180   178   ar
    16    27    25   ar
    17    69    70    1
    18    70    71    1
    19    70    73    1
    20    71    72    2
    21    21    20   ar
    22   178   177   ar
    23   177   176    1
    24    22    25   ar
    25    22    20   ar
    26    90    88    1
    27   172   173    1
    28    88    85    1
    29    88    89    1
    30     9     7   ar
    31     9    10   ar
    32   173   176    1
    33   173   174    1
    34    87    86    2
    35    20    19    1
    36    85    86    1
    37    85    84    1
    38    86    91   am
    39    75    73    1
    40     7     6   ar
    41    73    74    1
    42    91    92    1
    43    92    93    1
    44     1     2    1
    45    10    12   ar
    46    10     8   ar
    47   174   175    2
    48    12    14   ar
    49    49    47   am
    50    84    78   am
    51   167   166    2
    52     6     8   ar
    53     6     5    1
    54    62    63    2
    55    62    61    1
    56    19    16    1
    57    93    94    2
    58    93    95   am
    59    61    60    1
    60     8    11   ar
    61    15    16    1
    62    15     3   am
    63    48    47    2
    64     2     5    1
    65     2     3    1
    66    14    13   ar
    67    47    46    1
    68    16    17    1
    69    78    79    2
    70    78    77    1
    71   166   165    1
    72    95    96    1
    73    17    18    2
    74     3     4    2
    75    11    13   ar
    76   101   100    1
    77   157   156    2
    78   165   168    1
    79   165   164    1
    80    46    45    1
    81    77    76    1
    82    77    80    1
    83    82    81    1
    84    96    99    1
    85    96    97    1
    86   102   100    1
    87   168   169    1
    88   170   169   ar
    89    81    80    1
    90    81    83    1
    91   100    99    1
    92   156   164   am
    93   156   155    1
    94   169   171   ar
    95    45    42    1
    96    97    98    2
    97   155   158    1
    98   155   154    1
    99    42    41    1
   100    42    43    1
   101   161   159   ar
   102   161   163   ar
   103    36    38   ar
   104    36    34   ar
   105    33    30    1
   106    33    34    1
   107   158   159    1
   108   152   150    1
   109    41    31   am
   110   135   136   ar
   111   135   133   ar
   112   153   151    1
   113    29    30    1
   114    32    31    2
   115    31    30    1
   116    44    43    2
   117   159   160   ar
   118   136   134   ar
   119    38    39   ar
   120    34    35   ar
   121   163   162   ar
   122   133   132   ar
   123   150   151    1
   124   150   147    1
   125    57    59   ar
   126    57    55   ar
   127   160   162   ar
   128    59    58   ar
   129   134   132   ar
   130   149   148    2
   131    39    40    1
   132    39    37   ar
   133    35    37   ar
   134   132   131    1
   135    55    54    1
   136    55    56   ar
   137    58    56   ar
   138    54    51    1
   139   148   147    1
   140   147   146    1
   141   145   143   ar
   142   131   128    1
   143   143   144   ar
   144   143   142    1
   145   126   123    1
   146   120   119   ar
   147   121   119   ar
   148    52    51    1
   149    52    53    2
   150    51    50    1
   151   113   111    1
   152   119   118    1
   153   128   127    1
   154   128   129    1
   155   123   122    1
   156   123   124    1
   157   142   141    1
   158   111   112    1
   159   111   110    2
   160   122   116   am
   161   130   129    2
   162   125   124    2
   163   118   115    1
   164   110   109    1
   165   116   115    1
   166   116   117    2
   167   141   138    1
   168   140   139    2
   169   115   114    1
   170   139   138    1
   171   138   137    1
   172   109   108    1
   173   108   107    1
   174   107   104    1
   175   106   105    2
   176   105   104    1
   177   104   103    1
