@<TRIPOS>MOLECULE
tmp/1u32A00.pdb
 178 174 0 0 0
SMALL
GASTEIGER

@<TRIPOS>ATOM
      1  N         73.7140   51.1280   19.7670 N.3    61  HIS61      -0.1241
      2  CA        74.2230   50.7860   21.0930 C.3    61  HIS61       0.1621
      3  C         73.2220   50.6910   22.2440 C.2    61  HIS61       0.2264
      4  O         73.3910   51.3440   23.2780 O.2    61  HIS61      -0.2867
      5  CB        75.3480   51.7500   21.4820 C.3    61  HIS61       0.0745
      6  CG        76.6440   51.4630   20.7880 C.ar   61  HIS61       0.0817
      7  ND1       77.2550   50.2290   20.8460 N.ar   61  HIS61      -0.2268
      8  CD2       77.4300   52.2370   20.0020 C.ar   61  HIS61       0.1154
      9  CE1       78.3610   50.2540   20.1230 C.ar   61  HIS61       0.1986
     10  NE2       78.4890   51.4600   19.6010 N.ar   61  HIS61      -0.2212
     11  N         77.1450   49.2550   25.6930 N.3    91  ARG91      -0.1245
     12  CA        77.0960   50.6330   26.1590 C.3    91  ARG91       0.1563
     13  C         75.7180   51.1440   26.5790 C.2    91  ARG91       0.2260
     14  O         75.5750   51.7190   27.6600 O.2    91  ARG91      -0.2867
     15  CB        77.7170   51.5550   25.1030 C.3    91  ARG91       0.0307
     16  CG        79.2100   51.3040   24.8800 C.3    91  ARG91       0.0489
     17  CD        79.9330   51.2390   26.2240 C.3    91  ARG91       0.2205
     18  NE        81.3230   51.6810   26.1610 N.pl3  91  ARG91      -0.0865
     19  CZ        82.0970   51.8410   27.2320 C.cat  91  ARG91       0.5346
     20  NH1       81.6150   51.5910   28.4450 N.pl3  91  ARG91       0.1354
     21  NH2       83.3450   52.2650   27.0950 N.pl3  91  ARG91       0.1354
     22  N         81.3680   45.9700   14.7730 N.3   119  ASN119     -0.1225
     23  CA        82.3800   45.2750   15.5630 C.3   119  ASN119      0.1785
     24  C         81.8370   44.8670   16.9240 C.2   119  ASN119      0.2597
     25  O         82.4400   44.0470   17.6180 O.2   119  ASN119     -0.2718
     26  CB        83.6520   46.1290   15.7210 C.3   119  ASN119      0.1169
     27  CG        83.3820   47.4790   16.3540 C.2   119  ASN119      0.2627
     28  OD1       82.5060   48.2140   15.9120 O.2   119  ASN119     -0.2716
     29  ND2       84.1450   47.8160   17.3870 N.am  119  ASN119     -0.0877
     30  N         80.6980   45.4360   17.3090 N.am  120  HIS120     -0.1975
     31  CA        80.0960   45.0720   18.5860 C.3   120  HIS120      0.1656
     32  C         79.2290   43.8220   18.4560 C.2   120  HIS120      0.2291
     33  O         78.7460   43.2750   19.4450 O.2   120  HIS120     -0.2864
     34  CB        79.3240   46.2610   19.1680 C.3   120  HIS120      0.0771
     35  CG        80.2170   47.2640   19.8360 C.ar  120  HIS120      0.0820
     36  ND1       80.4770   47.2450   21.1910 N.ar  120  HIS120     -0.2267
     37  CD2       81.0010   48.2420   19.3190 C.ar  120  HIS120      0.1154
     38  CE1       81.3850   48.1610   21.4780 C.ar  120  HIS120      0.1986
     39  NE2       81.7210   48.7790   20.3600 N.ar  120  HIS120     -0.2212
     40  N         83.9360   38.6770   21.5960 N.3   124  SER124     -0.1202
     41  CA        85.0070   39.2690   22.3850 C.3   124  SER124      0.2020
     42  C         84.7410   40.7150   22.7650 C.2   124  SER124      0.2618
     43  O         85.2250   41.1880   23.7900 O.2   124  SER124     -0.2717
     44  CB        86.3290   39.1660   21.6280 C.3   124  SER124      0.2103
     45  OG        86.5770   37.8220   21.2650 O.3   124  SER124     -0.2182
     46  N         83.9650   41.4150   21.9450 N.am  125  ILE125     -0.1979
     47  CA        83.6460   42.8110   22.2140 C.3   125  ILE125      0.1595
     48  C         82.4350   42.9870   23.1330 C.2   125  ILE125      0.2287
     49  O         82.5440   43.6150   24.1920 O.2   125  ILE125     -0.2864
     50  CB        83.3730   43.5810   20.9040 C.3   125  ILE125      0.0276
     51  CG1       84.6140   43.5540   20.0080 C.3   125  ILE125      0.0022
     52  CG2       82.9940   45.0250   21.2170 C.3   125  ILE125      0.0022
     53  CD1       85.8040   44.3050   20.5790 C.3   125  ILE125      0.0001
     54  N         82.6540   42.3640   26.9200 N.3   128  ILE128     -0.1231
     55  CA        83.2240   43.3840   27.8030 C.3   128  ILE128      0.1692
     56  C         82.4610   44.7010   27.9530 C.2   128  ILE128      0.2592
     57  O         82.5010   45.3210   29.0180 O.2   128  ILE128     -0.2718
     58  CB        84.6280   43.8150   27.3240 C.3   128  ILE128      0.0266
     59  CG1       85.4840   42.6070   26.9830 C.3   128  ILE128      0.0019
     60  CG2       85.3100   44.6470   28.3980 C.3   128  ILE128      0.0020
     61  CD1       86.8160   43.0100   26.3650 C.3   128  ILE128      0.0001
     62  N         81.7930   45.1400   26.8930 N.am  129  TYR129     -0.1976
     63  CA        81.1210   46.4300   26.9220 C.3   129  TYR129      0.1639
     64  C         79.6320   46.5290   27.2170 C.2   129  TYR129      0.2290
     65  O         78.9980   47.5170   26.8520 O.2   129  TYR129     -0.2864
     66  CB        81.4580   47.1880   25.6330 C.3   129  TYR129      0.0560
     67  CG        82.9500   47.4040   25.5040 C.ar  129  TYR129     -0.0198
     68  CD1       83.6310   48.2300   26.4000 C.ar  129  TYR129     -0.0009
     69  CD2       83.6940   46.7180   24.5480 C.ar  129  TYR129     -0.0009
     70  CE1       85.0200   48.3620   26.3520 C.ar  129  TYR129      0.0417
     71  CE2       85.0810   46.8420   24.4910 C.ar  129  TYR129      0.0417
     72  CZ        85.7360   47.6630   25.3960 C.ar  129  TYR129      0.1957
     73  OH        87.1060   47.7690   25.3510 O.3   129  TYR129     -0.2866
     74  N         88.2860   41.9730    9.3910 N.3   197  CYS197     -0.1235
     75  CA        88.6470   42.7420   10.5740 C.3   197  CYS197      0.1677
     76  C         88.6060   44.2360   10.2440 C.2   197  CYS197      0.2270
     77  O         88.0240   45.0410   10.9790 O.2   197  CYS197     -0.2867
     78  CB        90.0560   42.3570   11.0110 C.3   197  CYS197      0.0956
     79  SG        90.6630   43.2270   12.4860 S.3   197  CYS197     -0.0801
     80  N         86.4300   47.4160   11.6500 N.3   201  TRP201     -0.1241
     81  CA        87.1480   48.3370   12.5240 C.3   201  TRP201      0.1605
     82  C         87.8430   49.5830   11.9680 C.2   201  TRP201      0.2264
     83  O         88.0780   50.5230   12.7190 O.2   201  TRP201     -0.2867
     84  CB        88.2230   47.5770   13.3060 C.3   201  TRP201      0.0550
     85  CG        87.7530   46.6520   14.3930 C.ar  201  TRP201      0.0003
     86  CD1       87.4820   45.3140   14.2800 C.ar  201  TRP201      0.0946
     87  CD2       87.5910   46.9780   15.7760 C.ar  201  TRP201      0.0152
     88  NE1       87.1720   44.7880   15.5130 N.ar  201  TRP201     -0.2442
     89  CE2       87.2300   45.7890   16.4470 C.ar  201  TRP201      0.0810
     90  CE3       87.7210   48.1620   16.5170 C.ar  201  TRP201      0.0012
     91  CZ2       86.9960   45.7490   17.8240 C.ar  201  TRP201      0.0191
     92  CZ3       87.4890   48.1210   17.8880 C.ar  201  TRP201      0.0001
     93  CH2       87.1310   46.9200   18.5250 C.ar  201  TRP201      0.0015
     94  N         94.3120   54.3720   16.3180 N.3   215  ASP215     -0.1225
     95  CA        94.3860   54.5120   17.7720 C.3   215  ASP215      0.1805
     96  C         93.5950   53.4490   18.5340 C.2   215  ASP215      0.2598
     97  O         93.8020   53.2690   19.7320 O.2   215  ASP215     -0.2718
     98  CB        93.8840   55.8950   18.2150 C.3   215  ASP215      0.1424
     99  CG        94.7490   57.0330   17.6980 C.2   215  ASP215      0.3668
    100  OD1       95.9920   56.9170   17.7600 O.co2 215  ASP215     -0.2456
    101  OD2       94.1840   58.0510   17.2420 O.co2 215  ASP215     -0.2456
    102  N         92.6890   52.7520   17.8540 N.am  216  ARG216     -0.1966
    103  CA        91.8780   51.7260   18.5130 C.3   216  ARG216      0.1729
    104  C         92.6920   50.5130   18.9610 C.2   216  ARG216      0.2617
    105  O         92.2460   49.7340   19.8060 O.2   216  ARG216     -0.2715
    106  CB        90.7430   51.2620   17.5900 C.3   216  ARG216      0.0348
    107  CG        89.6660   52.3110   17.3240 C.3   216  ARG216      0.0492
    108  CD        88.6370   51.7570   16.3580 C.3   216  ARG216      0.2205
    109  NE        87.7730   52.7860   15.7870 N.pl3 216  ARG216     -0.0865
    110  CZ        86.6130   53.1810   16.3060 C.cat 216  ARG216      0.5346
    111  NH1       86.1530   52.6340   17.4310 N.pl3 216  ARG216      0.1354
    112  NH2       85.9000   54.1130   15.6850 N.pl3 216  ARG216      0.1354
    113  N         93.8820   50.3540   18.3960 N.am  217  GLY217     -0.1940
    114  CA        94.7210   49.2250   18.7660 C.3   217  GLY217      0.2014
    115  C         94.4460   48.0250   17.8800 C.2   217  GLY217      0.2638
    116  O         94.8270   46.8980   18.1930 O.2   217  GLY217     -0.2714
    117  N         93.7660   48.2760   16.7680 N.am  218  VAL218     -0.1977
    118  CA        93.4340   47.2270   15.8140 C.3   218  VAL218      0.1596
    119  C         93.1450   47.8790   14.4690 C.2   218  VAL218      0.2287
    120  O         92.7420   49.0380   14.4180 O.2   218  VAL218     -0.2864
    121  CB        92.1830   46.4320   16.2690 C.3   218  VAL218      0.0276
    122  CG1       91.0110   47.3750   16.4780 C.3   218  VAL218      0.0022
    123  CG2       91.8280   45.3760   15.2390 C.3   218  VAL218      0.0022
    124  N         81.9810   55.6810   14.2180 N.3   244  GLN244     -0.1231
    125  CA        82.5370   56.7980   14.9940 C.3   244  GLN244      0.1698
    126  C         81.4930   57.8240   15.4160 C.2   244  GLN244      0.2592
    127  O         80.6640   58.2420   14.6170 O.2   244  GLN244     -0.2718
    128  CB        83.6440   57.5070   14.2060 C.3   244  GLN244      0.0381
    129  CG        84.9550   56.7450   14.1600 C.3   244  GLN244      0.0905
    130  CD        86.0330   57.4690   13.3690 C.2   244  GLN244      0.2608
    131  OE1       85.8730   57.7370   12.1760 O.2   244  GLN244     -0.2717
    132  NE2       87.1410   57.7810   14.0330 N.am  244  GLN244     -0.0878
    133  N         81.5420   58.2350   16.6790 N.am  245  VAL245     -0.1980
    134  CA        80.5930   59.2260   17.1810 C.3   245  VAL245      0.1595
    135  C         80.8710   60.5860   16.5410 C.2   245  VAL245      0.2287
    136  O         82.0000   61.0720   16.5930 O.2   245  VAL245     -0.2864
    137  CB        80.7080   59.3940   18.7150 C.3   245  VAL245      0.0276
    138  CG1       79.6050   60.3140   19.2200 C.3   245  VAL245      0.0022
    139  CG2       80.6370   58.0360   19.3970 C.3   245  VAL245      0.0022
    140  N         75.4900   59.9050   23.2420 N.3   267  TYR267     -0.1227
    141  CA        76.2330   58.6690   23.4690 C.3   267  TYR267      0.1736
    142  C         76.7310   58.4990   24.9040 C.2   267  TYR267      0.2595
    143  O         77.3700   59.3880   25.4720 O.2   267  TYR267     -0.2718
    144  CB        77.4110   58.5930   22.4880 C.3   267  TYR267      0.0548
    145  CG        78.1410   57.2630   22.4480 C.ar  267  TYR267     -0.0200
    146  CD1       77.4450   56.0570   22.3400 C.ar  267  TYR267     -0.0009
    147  CD2       79.5340   57.2160   22.4720 C.ar  267  TYR267     -0.0009
    148  CE1       78.1220   54.8360   22.2550 C.ar  267  TYR267      0.0417
    149  CE2       80.2180   56.0040   22.3860 C.ar  267  TYR267      0.0417
    150  CZ        79.5070   54.8180   22.2770 C.ar  267  TYR267      0.1957
    151  OH        80.1920   53.6260   22.1820 O.3   267  TYR267     -0.2866
    152  N         76.4170   57.3440   25.4810 N.am  268  LEU268     -0.1980
    153  CA        76.8160   57.0010   26.8400 C.3   268  LEU268      0.1596
    154  C         76.4870   58.0590   27.8880 C.2   268  LEU268      0.2287
    155  O         77.1010   58.0920   28.9550 O.2   268  LEU268     -0.2864
    156  CB        78.3120   56.6860   26.8680 C.3   268  LEU268      0.0297
    157  CG        78.6690   55.3130   26.2910 C.3   268  LEU268      0.0022
    158  CD1       80.1680   55.2010   26.0690 C.3   268  LEU268      0.0001
    159  CD2       78.1840   54.2310   27.2470 C.3   268  LEU268      0.0001
    160  N         77.3660   60.8160   28.1870 N.3   270  VAL270     -0.1231
    161  CA        78.4560   61.7640   28.3920 C.3   270  VAL270      0.1692
    162  C         78.5430   62.7430   27.2290 C.2   270  VAL270      0.2592
    163  O         78.6490   63.9520   27.4290 O.2   270  VAL270     -0.2718
    164  CB        79.8090   61.0490   28.5470 C.3   270  VAL270      0.0266
    165  CG1       80.8450   62.0300   29.0540 C.3   270  VAL270      0.0020
    166  CG2       79.6780   59.8810   29.5090 C.3   270  VAL270      0.0020
    167  N         78.5100   62.2160   26.0120 N.am  271  TYR271     -0.1976
    168  CA        78.5500   63.0600   24.8240 C.3   271  TYR271      0.1639
    169  C         77.1890   63.7330   24.6970 C.2   271  TYR271      0.2290
    170  O         76.1990   63.2360   25.2270 O.2   271  TYR271     -0.2864
    171  CB        78.8070   62.2140   23.5740 C.3   271  TYR271      0.0560
    172  CG        80.2520   62.1280   23.1420 C.ar  271  TYR271     -0.0198
    173  CD1       81.2180   61.5430   23.9600 C.ar  271  TYR271     -0.0009
    174  CD2       80.6490   62.6170   21.8970 C.ar  271  TYR271     -0.0009
    175  CE1       82.5470   61.4450   23.5450 C.ar  271  TYR271      0.0417
    176  CE2       81.9710   62.5250   21.4730 C.ar  271  TYR271      0.0417
    177  CZ        82.9140   61.9380   22.2990 C.ar  271  TYR271      0.1957
    178  OH        84.2180   61.8380   21.8690 O.3   271  TYR271     -0.2866
@<TRIPOS>BOND
     1    74    75    1
     2    76    75    1
     3    76    77    2
     4    75    78    1
     5    78    79    1
     6    80    81    1
     7    82    81    1
     8    82    83    2
     9   131   130    2
    10    81    84    1
    11    84    85    1
    12   130   132   am
    13   130   129    1
    14   129   128    1
    15   128   125    1
    16   124   125    1
    17    86    85   ar
    18    86    88   ar
    19    85    87   ar
    20   120   119    2
    21   119   118    1
    22   127   126    2
    23    22    23    1
    24   125   126    1
    25   123   121    1
    26   126   133   am
    27    88    89   ar
    28    23    26    1
    29    23    24    1
    30   112   110    1
    31    26    27    1
    32    87    89   ar
    33    87    90   ar
    34   109   110    2
    35   109   108    1
    36   118   121    1
    37   118   117    1
    38    28    27    2
    39   121   122    1
    40   110   111    1
    41    94    95    1
    42    27    29   am
    43   108   107    1
    44    89    91   ar
    45    90    92   ar
    46   135   136    2
    47   135   134    1
    48   133   134    1
    49   117   115   am
    50    24    30   am
    51    24    25    2
    52   134   137    1
    53   101    99   ar
    54    30    31    1
    55   107   106    1
    56   106   103    1
    57    99   100   ar
    58    99    98    1
    59    95    98    1
    60    95    96    1
    61    91    93   ar
    62   102   103    1
    63   102    96   am
    64   115   116    2
    65   115   114    1
    66    92    93   ar
    67   113   114    1
    68   113   104   am
    69    32    31    1
    70    32    33    2
    71   103   104    1
    72    96    97    2
    73    31    34    1
    74   137   138    1
    75   137   139    1
    76   104   105    2
    77    34    35    1
    78    37    35   ar
    79    37    39   ar
    80    10     8   ar
    81    10     9   ar
    82     1     2    1
    83    35    36   ar
    84     8     6   ar
    85    51    53    1
    86    51    50    1
    87     9     7   ar
    88    39    38   ar
    89     6     7   ar
    90     6     5    1
    91    50    52    1
    92    50    47    1
    93     2     5    1
    94     2     3    1
    95    36    38   ar
    96    45    44    1
    97   176   174   ar
    98   176   177   ar
    99    40    41    1
   100    44    41    1
   101   178   177    1
   102   174   172   ar
   103    46    47    1
   104    46    42   am
   105   151   150    1
   106    47    48    1
   107     3     4    2
   108   148   150   ar
   109   148   146   ar
   110   150   149   ar
   111   177   175   ar
   112   146   145   ar
   113    41    42    1
   114   149   147   ar
   115   145   147   ar
   116   145   144    1
   117   144   141    1
   118    42    43    2
   119    48    49    2
   120   172   171    1
   121   172   173   ar
   122   140   141    1
   123   141   142    1
   124   175   173   ar
   125   171   168    1
   126    71    69   ar
   127    71    72   ar
   128    69    67   ar
   129   169   168    1
   130   169   170    2
   131   168   167    1
   132    16    15    1
   133    16    17    1
   134   142   143    2
   135   142   152   am
   136    15    12    1
   137    73    72    1
   138    72    70   ar
   139   152   153    1
   140    67    66    1
   141    67    68   ar
   142    66    63    1
   143    11    12    1
   144   167   162   am
   145   158   157    1
   146    12    13    1
   147    18    17    1
   148    18    19    2
   149   157   156    1
   150   157   159    1
   151    70    68   ar
   152    61    59    1
   153    13    14    2
   154   153   156    1
   155   153   154    1
   156    65    64    2
   157    62    63    1
   158    62    56   am
   159    54    55    1
   160    63    64    1
   161    59    58    1
   162    21    19    1
   163   162   163    2
   164   162   161    1
   165    19    20    1
   166    58    55    1
   167    58    60    1
   168    55    56    1
   169   154   155    2
   170    56    57    2
   171   160   161    1
   172   161   164    1
   173   164   165    1
   174   164   166    1
