@<TRIPOS>MOLECULE
tmp/1u38A00.pdb
 92 88 0 0 0
SMALL
GASTEIGER

@<TRIPOS>ATOM
      1  N         -8.6140   12.2240    4.1350 N.3    14  ILE14      -0.1231
      2  CA        -8.3030   10.7890    4.2310 C.3    14  ILE14       0.1692
      3  C         -8.8750    9.9730    3.0720 C.2    14  ILE14       0.2592
      4  O         -8.1590    9.6090    2.1400 O.2    14  ILE14      -0.2718
      5  CB        -8.8030   10.1870    5.5620 C.3    14  ILE14       0.0266
      6  CG1      -10.0500   10.9150    6.0630 C.3    14  ILE14       0.0019
      7  CG2       -7.7070   10.2340    6.6140 C.3    14  ILE14       0.0020
      8  CD1      -11.1360    9.9720    6.5220 C.3    14  ILE14       0.0001
      9  N        -10.1680    9.6950    3.1490 N.am   15  LEU15      -0.1966
     10  CA       -10.8690    8.9280    2.1270 C.3    15  LEU15       0.1728
     11  C        -12.3150    8.7080    2.5480 C.2    15  LEU15       0.2617
     12  O        -13.2380    8.8140    1.7400 O.2    15  LEU15      -0.2715
     13  CB       -10.1850    7.5770    1.8910 C.3    15  LEU15       0.0311
     14  CG       -10.7970    6.7300    0.7750 C.3    15  LEU15       0.0022
     15  CD1      -10.8780    7.5290   -0.5180 C.3    15  LEU15       0.0001
     16  CD2       -9.9870    5.4590    0.5680 C.3    15  LEU15       0.0001
     17  N        -12.5010    8.4160    3.8320 N.am   16  GLY16      -0.1940
     18  CA       -13.8310    8.2030    4.3640 C.3    16  GLY16       0.2014
     19  C        -14.3520    6.7950    4.1490 C.2    16  GLY16       0.2639
     20  O        -15.3600    6.6010    3.4700 O.2    16  GLY16      -0.2714
     21  N        -13.6780    5.8080    4.7330 N.am   17  VAL17      -0.1963
     22  CA       -14.1110    4.4150    4.5970 C.3    17  VAL17       0.1727
     23  C        -13.6960    3.5690    5.7980 C.2    17  VAL17       0.2616
     24  O        -12.7500    3.8990    6.5090 O.2    17  VAL17      -0.2715
     25  CB       -13.6070    3.7530    3.2820 C.3    17  VAL17       0.0290
     26  CG1      -13.2110    4.8070    2.2580 C.3    17  VAL17       0.0023
     27  CG2      -12.4490    2.7870    3.5270 C.3    17  VAL17       0.0023
     28  N        -14.4130    2.4720    6.0040 N.am   18  VAL18      -0.1963
     29  CA       -14.1230    1.5590    7.1030 C.3    18  VAL18       0.1727
     30  C        -13.8510    0.1590    6.5710 C.2    18  VAL18       0.2616
     31  O        -14.6250   -0.3760    5.7780 O.2    18  VAL18      -0.2715
     32  CB       -15.2770    1.5010    8.1170 C.3    18  VAL18       0.0290
     33  CG1      -14.9100    0.6180    9.3020 C.3    18  VAL18       0.0023
     34  CG2      -15.6450    2.9010    8.5800 C.3    18  VAL18       0.0023
     35  N        -12.7400   -0.4240    7.0000 N.am   19  ILE19      -0.1977
     36  CA       -12.3540   -1.7540    6.5530 C.3    19  ILE19       0.1596
     37  C        -12.2940   -2.7490    7.7080 C.2    19  ILE19       0.2287
     38  O        -12.0580   -2.3740    8.8570 O.2    19  ILE19      -0.2864
     39  CB       -10.9900   -1.7270    5.8470 C.3    19  ILE19       0.0276
     40  CG1      -10.0440   -0.7420    6.5270 C.3    19  ILE19       0.0022
     41  CG2      -11.1620   -1.3770    4.3760 C.3    19  ILE19       0.0022
     42  CD1       -8.6000   -1.1670    6.4550 C.3    19  ILE19       0.0001
     43  N        -17.9530    0.0180    6.0690 N.3    35  ASN35      -0.1225
     44  CA       -18.5660    1.3270    6.2540 C.3    35  ASN35       0.1785
     45  C        -17.9060    2.3730    5.3600 C.2    35  ASN35       0.2597
     46  O        -16.7820    2.1820    4.8930 O.2    35  ASN35      -0.2718
     47  CB       -18.4800    1.7530    7.7200 C.3    35  ASN35       0.1169
     48  CG       -19.8440    1.8590    8.3760 C.2    35  ASN35       0.2627
     49  OD1      -20.7380    1.0570    8.1070 O.2    35  ASN35      -0.2716
     50  ND2      -20.0090    2.8540    9.2400 N.am   35  ASN35      -0.0877
     51  N        -18.6140    3.4720    5.1190 N.am   36  MET36      -0.1965
     52  CA       -18.0960    4.5390    4.2700 C.3    36  MET36       0.1736
     53  C        -18.6780    5.8950    4.6590 C.2    36  MET36       0.2616
     54  O        -19.8690    6.0110    4.9490 O.2    36  MET36      -0.2715
     55  CB       -18.4120    4.2430    2.8060 C.3    36  MET36       0.0427
     56  CG       -17.8440    5.2690    1.8370 C.3    36  MET36       0.0599
     57  SD       -18.6510    5.2230    0.2230 S.3    36  MET36      -0.1393
     58  CE       -19.0660    3.4860    0.0910 C.3    36  MET36       0.0692
     59  N        -17.8310    6.9200    4.6490 N.am   37  MET37      -0.1977
     60  CA       -18.2620    8.2720    4.9870 C.3    37  MET37       0.1605
     61  C        -19.0650    8.8760    3.8390 C.2    37  MET37       0.2287
     62  O        -18.4970    9.4090    2.8870 O.2    37  MET37      -0.2864
     63  CB       -17.0500    9.1580    5.2890 C.3    37  MET37       0.0413
     64  CG       -16.6620    9.1930    6.7590 C.3    37  MET37       0.0598
     65  SD       -15.8490   10.7330    7.2260 S.3    37  MET37      -0.1393
     66  CE       -14.1270   10.3020    6.9830 C.3    37  MET37       0.0692
     67  N         -5.4020   -0.8790    7.9510 N.3    71  GLN71      -0.1245
     68  CA        -5.8170    0.4310    8.4380 C.3    71  GLN71       0.1566
     69  C         -4.6430    1.4010    8.3950 C.2    71  GLN71       0.2260
     70  O         -4.7800    2.5450    7.9570 O.2    71  GLN71      -0.2867
     71  CB        -6.3650    0.3250    9.8610 C.3    71  GLN71       0.0367
     72  CG        -7.8520    0.0150    9.9140 C.3    71  GLN71       0.0905
     73  CD        -8.2760   -0.5940   11.2370 C.2    71  GLN71       0.2608
     74  OE1       -9.1040   -0.0330   11.9540 O.2    71  GLN71      -0.2717
     75  NE2       -7.7070   -1.7480   11.5640 N.am   71  GLN71      -0.0878
     76  N         -3.8930    2.7500    4.7760 N.3    74  ILE74      -0.1231
     77  CA        -4.7300    3.8350    4.3050 C.3    74  ILE74       0.1692
     78  C         -4.5280    5.1120    5.1120 C.2    74  ILE74       0.2591
     79  O         -4.3180    6.1840    4.5450 O.2    74  ILE74      -0.2718
     80  CB        -6.2110    3.4390    4.3520 C.3    74  ILE74       0.0266
     81  CG1       -6.4190    2.0540    3.7320 C.3    74  ILE74       0.0019
     82  CG2       -7.0370    4.4750    3.6250 C.3    74  ILE74       0.0020
     83  CD1       -7.8530    1.5740    3.7900 C.3    74  ILE74       0.0001
     84  N         -4.5980    5.0060    6.4330 N.am   75  LYS75      -0.1980
     85  CA        -4.4220    6.1730    7.2900 C.3    75  LYS75       0.1596
     86  C         -3.0860    6.8520    7.0120 C.2    75  LYS75       0.2287
     87  O         -2.9180    8.0470    7.2620 O.2    75  LYS75      -0.2864
     88  CB        -4.5220    5.7870    8.7630 C.3    75  LYS75       0.0298
     89  CG        -3.5070    4.7420    9.1790 C.3    75  LYS75       0.0038
     90  CD        -2.3150    5.3680    9.8890 C.3    75  LYS75       0.0206
     91  CE        -2.1480    4.8130   11.2930 C.3    75  LYS75       0.1093
     92  NZ        -1.1890    5.6180   12.0990 N.3    75  LYS75      -0.1314
@<TRIPOS>BOND
     1    15    14    1
     2    58    57    1
     3    57    56    1
     4    16    14    1
     5    14    13    1
     6    12    11    2
     7    56    55    1
     8    13    10    1
     9    10    11    1
    10    10     9    1
    11     4     3    2
    12    26    25    1
    13    11    17   am
    14    55    52    1
    15    62    61    2
    16     3     9   am
    17     3     2    1
    18    25    27    1
    19    25    22    1
    20    20    19    2
    21    82    80    1
    22    81    83    1
    23    81    80    1
    24    17    18    1
    25    61    60    1
    26     1     2    1
    27    19    18    1
    28    19    21   am
    29     2     5    1
    30    52    53    1
    31    52    51    1
    32    77    80    1
    33    77    76    1
    34    77    78    1
    35    41    39    1
    36    79    78    2
    37    22    21    1
    38    22    23    1
    39    59    53   am
    40    59    60    1
    41    53    54    2
    42    46    45    2
    43    60    63    1
    44    78    84   am
    45    51    45   am
    46    63    64    1
    47    45    44    1
    48     5     6    1
    49     5     7    1
    50    31    30    2
    51    23    28   am
    52    23    24    2
    53    39    40    1
    54    39    36    1
    55    28    29    1
    56     6     8    1
    57    43    44    1
    58    44    47    1
    59    84    85    1
    60    42    40    1
    61    36    35    1
    62    36    37    1
    63    30    35   am
    64    30    29    1
    65    64    65    1
    66    66    65    1
    67    86    87    2
    68    86    85    1
    69    29    32    1
    70    85    88    1
    71    37    38    2
    72    47    48    1
    73    67    68    1
    74    70    69    2
    75    49    48    2
    76    32    34    1
    77    32    33    1
    78    48    50   am
    79    69    68    1
    80    68    71    1
    81    88    89    1
    82    89    90    1
    83    71    72    1
    84    90    91    1
    85    72    73    1
    86    73    75   am
    87    73    74    2
    88    91    92    1
