@<TRIPOS>MOLECULE
tmp/1u3aB00.pdb
 116 112 0 0 0
SMALL
GASTEIGER

@<TRIPOS>ATOM
      1  N          8.4190    7.5170   49.2210 N.3    33  TYR33      -0.1227
      2  CA         9.8190    7.8710   49.5170 C.3    33  TYR33       0.1736
      3  C         10.8300    6.9430   48.8870 C.2    33  TYR33       0.2595
      4  O         11.7850    7.4020   48.2410 O.2    33  TYR33      -0.2718
      5  CB        10.1420    8.0660   51.0350 C.3    33  TYR33       0.0548
      6  CG        11.5000    8.7270   51.2050 C.ar   33  TYR33      -0.0200
      7  CD1       11.9240    9.6980   50.2860 C.ar   33  TYR33      -0.0009
      8  CD2       12.3640    8.3940   52.2510 C.ar   33  TYR33      -0.0009
      9  CE1       13.1540   10.2930   50.3810 C.ar   33  TYR33       0.0417
     10  CE2       13.6300    9.0360   52.3750 C.ar   33  TYR33       0.0417
     11  CZ        13.9980    9.9650   51.4210 C.ar   33  TYR33       0.1957
     12  OH        15.2120   10.5970   51.4500 O.3    33  TYR33      -0.2866
     13  N         10.6450    5.6400   49.0710 N.am   34  GLN34      -0.1979
     14  CA        11.5860    4.7190   48.5300 C.3    34  GLN34       0.1601
     15  C         11.5650    4.6630   46.9970 C.2    34  GLN34       0.2287
     16  O         12.5710    4.4180   46.4050 O.2    34  GLN34      -0.2864
     17  CB        11.4160    3.3500   49.1630 C.3    34  GLN34       0.0394
     18  CG        11.3840    3.4860   50.7220 C.3    34  GLN34       0.0908
     19  CD        11.5160    2.1840   51.3850 C.2    34  GLN34       0.2608
     20  OE1       10.5140    1.5870   51.7240 O.2    34  GLN34      -0.2717
     21  NE2       12.7480    1.7050   51.5610 N.am   34  GLN34      -0.0878
     22  N         13.5230    7.7840   45.7980 N.3    37  GLU37      -0.1231
     23  CA        14.9050    7.5250   46.1010 C.3    37  GLU37       0.1699
     24  C         15.5560    6.6590   45.0180 C.2    37  GLU37       0.2592
     25  O         16.6950    6.9020   44.6320 O.2    37  GLU37      -0.2718
     26  CB        14.9620    6.7360   47.4160 C.3    37  GLU37       0.0402
     27  CG        16.2820    6.7300   48.1630 C.3    37  GLU37       0.1161
     28  CD        16.0330    6.5150   49.6560 C.2    37  GLU37       0.3649
     29  OE1       16.2070    7.4740   50.4180 O.co2  37  GLU37      -0.2457
     30  OE2       15.5850    5.4140   50.0610 O.co2  37  GLU37      -0.2457
     31  N         14.8690    5.6190   44.5600 N.am   38  VAL38      -0.1980
     32  CA        15.4490    4.8050   43.5200 C.3    38  VAL38       0.1595
     33  C         15.6100    5.6260   42.2200 C.2    38  VAL38       0.2287
     34  O         16.6000    5.4810   41.5270 O.2    38  VAL38      -0.2864
     35  CB        14.6950    3.5060   43.3120 C.3    38  VAL38       0.0276
     36  CG1       15.1500    2.8630   42.0210 C.3    38  VAL38       0.0022
     37  CG2       14.9140    2.5600   44.5540 C.3    38  VAL38       0.0022
     38  N         18.7820    7.7480   42.3700 N.3    41  ILE41      -0.1245
     39  CA        19.9480    6.9230   42.1840 C.3    41  ILE41       0.1561
     40  C         20.0950    6.5230   40.7200 C.2    41  ILE41       0.2260
     41  O         21.2390    6.4600   40.1890 O.2    41  ILE41      -0.2867
     42  CB        19.9020    5.6170   43.0840 C.3    41  ILE41       0.0252
     43  CG1       20.1820    5.9020   44.5490 C.3    41  ILE41       0.0019
     44  CG2       20.9480    4.5700   42.6280 C.3    41  ILE41       0.0019
     45  CD1       19.2200    6.8880   45.2940 C.3    41  ILE41       0.0001
     46  N         13.6680   -2.5500   43.6010 N.3   150  PRO150     -0.2102
     47  CA        14.5220   -2.3440   42.3850 C.3   150  PRO150      0.1504
     48  C         15.6570   -3.3180   42.2120 C.2   150  PRO150      0.2576
     49  O         16.0400   -4.0040   43.1600 O.2   150  PRO150     -0.2718
     50  CB        15.1540   -0.9720   42.6340 C.3   150  PRO150      0.0282
     51  CG        15.2260   -0.8810   44.1570 C.3   150  PRO150      0.0208
     52  CD        13.9230   -1.5350   44.6380 C.3   150  PRO150      0.0893
     53  N         16.1790   -3.3660   40.9880 N.am  151  ALA151     -0.1966
     54  CA        17.2640   -4.1980   40.6300 C.3   151  ALA151      0.1728
     55  C         17.9120   -3.6710   39.3890 C.2   151  ALA151      0.2616
     56  O         17.2450   -3.1560   38.4760 O.2   151  ALA151     -0.2715
     57  CB        16.7850   -5.6010   40.3830 C.3   151  ALA151      0.0334
     58  N         19.2040   -3.9310   39.2690 N.am  152  MET152     -0.1977
     59  CA        19.9170   -3.5040   38.0740 C.3   152  MET152      0.1605
     60  C         20.9740   -4.5140   37.6540 C.2   152  MET152      0.2287
     61  O         21.6410   -5.0910   38.4930 O.2   152  MET152     -0.2864
     62  CB        20.5160   -2.1390   38.3100 C.3   152  MET152      0.0413
     63  CG        20.7940   -1.3900   37.0420 C.3   152  MET152      0.0598
     64  SD        21.5490    0.1910   37.4230 S.3   152  MET152     -0.1393
     65  CE        20.1670    1.1420   38.0550 C.3   152  MET152      0.0692
     66  N         23.5230   -3.5490   46.2590 N.3   162  PRO162     -0.2116
     67  CA        23.6130   -2.3140   47.0450 C.3   162  PRO162      0.1372
     68  C         23.9170   -2.5660   48.5280 C.2   162  PRO162      0.2244
     69  O         24.4020   -1.6700   49.2190 O.2   162  PRO162     -0.2868
     70  CB        22.2100   -1.7000   46.9380 C.3   162  PRO162      0.0268
     71  CG        21.2980   -2.7650   46.4010 C.3   162  PRO162      0.0207
     72  CD        22.1760   -3.7450   45.6810 C.3   162  PRO162      0.0892
     73  N         26.2120    2.6640   53.1180 N.3   167  THR167     -0.1203
     74  CA        24.9630    3.4190   53.1100 C.3   167  THR167      0.1994
     75  C         24.9290    4.5470   54.1460 C.2   167  THR167      0.2618
     76  O         23.9750    5.3380   54.1640 O.2   167  THR167     -0.2717
     77  CB        23.7470    2.4830   53.3120 C.3   167  THR167      0.1784
     78  OG1       23.7760    1.9280   54.6380 O.3   167  THR167     -0.2211
     79  CG2       23.8250    1.2590   52.3750 C.3   167  THR167      0.0376
     80  N         25.9620    4.6250   54.9940 N.am  168  SER168     -0.1951
     81  CA        26.0200    5.6130   56.0630 C.3   168  SER168      0.1924
     82  C         25.7750    7.0180   55.5180 C.2   168  SER168      0.2314
     83  O         25.0370    7.8290   56.1120 O.2   168  SER168     -0.2863
     84  CB        27.3710    5.5180   56.7940 C.3   168  SER168      0.2116
     85  OG        28.4130    6.1980   56.0860 O.3   168  SER168     -0.2180
     86  N         24.6970    9.1880   51.8980 N.3   170  MET170     -0.1245
     87  CA        23.8470    9.0110   50.7490 C.3   170  MET170      0.1570
     88  C         24.6380    9.2610   49.4780 C.2   170  MET170      0.2261
     89  O         24.5820    8.4630   48.5300 O.2   170  MET170     -0.2867
     90  CB        22.6640    9.9670   50.8250 C.3   170  MET170      0.0387
     91  CG        21.3200    9.2520   50.8130 C.3   170  MET170      0.0595
     92  SD        20.9880    8.3540   49.2880 S.3   170  MET170     -0.1393
     93  CE        20.6800    9.7470   48.1820 C.3   170  MET170      0.0692
     94  N         27.0490    6.5150   48.8960 N.3   173  PHE173     -0.1241
     95  CA        26.3400    5.3230   48.4000 C.3   173  PHE173      0.1605
     96  C         25.9860    5.4770   46.9350 C.2   173  PHE173      0.2264
     97  O         26.2330    4.5740   46.1430 O.2   173  PHE173     -0.2867
     98  CB        25.0640    5.0460   49.2060 C.3   173  PHE173      0.0534
     99  CG        24.1700    3.9740   48.5840 C.ar  173  PHE173     -0.0203
    100  CD1       24.4210    2.6290   48.8200 C.ar  173  PHE173     -0.0042
    101  CD2       23.1160    4.3310   47.7590 C.ar  173  PHE173     -0.0042
    102  CE1       23.6160    1.6400   48.2660 C.ar  173  PHE173     -0.0003
    103  CE2       22.3040    3.3660   47.1800 C.ar  173  PHE173     -0.0003
    104  CZ        22.5650    2.0050   47.4440 C.ar  173  PHE173     -0.0000
    105  N         27.4690    3.4410   43.8490 N.3   177  TYR177     -0.1241
    106  CA        26.5350    2.6580   43.0090 C.3   177  TYR177      0.1605
    107  C         26.7950    2.9990   41.5410 C.2   177  TYR177      0.2264
    108  O         27.1040    2.1070   40.7150 O.2   177  TYR177     -0.2867
    109  CB        25.0460    2.8710   43.4100 C.3   177  TYR177      0.0534
    110  CG        24.0250    1.8700   42.8190 C.ar  177  TYR177     -0.0201
    111  CD1       23.6650    1.9080   41.4700 C.ar  177  TYR177     -0.0009
    112  CD2       23.4550    0.8960   43.6290 C.ar  177  TYR177     -0.0009
    113  CE1       22.7610    0.9950   40.9300 C.ar  177  TYR177      0.0417
    114  CE2       22.5400   -0.0290   43.1250 C.ar  177  TYR177      0.0417
    115  CZ        22.1910    0.0180   41.7750 C.ar  177  TYR177      0.1957
    116  OH        21.2760   -0.8990   41.3050 O.3   177  TYR177     -0.2866
@<TRIPOS>BOND
     1    63    64    1
     2    63    62    1
     3    64    65    1
     4    60    59    1
     5    60    61    2
     6    59    62    1
     7    59    58    1
     8    56    55    2
     9    58    55   am
    10    55    54    1
    11    41    40    2
    12    57    54    1
    13    54    53    1
    14   108   107    2
    15    40    39    1
    16   113   111   ar
    17   113   115   ar
    18    53    48   am
    19   116   115    1
    20   111   110   ar
    21    34    33    2
    22   107   106    1
    23   115   114   ar
    24    36    35    1
    25    39    38    1
    26    39    42    1
    27    48    47    1
    28    48    49    2
    29    33    32    1
    30    47    50    1
    31    47    46    1
    32    44    42    1
    33    50    51    1
    34   110   109    1
    35   110   112   ar
    36   106   109    1
    37   106   105    1
    38    42    43    1
    39   114   112   ar
    40    35    32    1
    41    35    37    1
    42    32    31    1
    43    46    52    1
    44    51    52    1
    45    43    45    1
    46    31    24   am
    47    25    24    2
    48    24    23    1
    49    72    66    1
    50    72    71    1
    51    22    23    1
    52    23    26    1
    53    97    96    2
    54    66    67    1
    55    71    70    1
    56    16    15    2
    57    96    95    1
    58    70    67    1
    59    15    14    1
    60    67    68    1
    61   103   104   ar
    62   103   101   ar
    63    26    27    1
    64   104   102   ar
    65   101    99   ar
    66    27    28    1
    67    93    92    1
    68     4     3    2
    69   102   100   ar
    70    95    94    1
    71    95    98    1
    72    68    69    2
    73    89    88    2
    74    14    13    1
    75    14    17    1
    76    99   100   ar
    77    99    98    1
    78     3    13   am
    79     3     2    1
    80    17    18    1
    81     1     2    1
    82    92    91    1
    83    88    87    1
    84     2     5    1
    85    28    30   ar
    86    28    29   ar
    87     7     9   ar
    88     7     6   ar
    89     9    11   ar
    90    18    19    1
    91    87    90    1
    92    87    86    1
    93    91    90    1
    94     5     6    1
    95     6     8   ar
    96    19    21   am
    97    19    20    2
    98    11    12    1
    99    11    10   ar
   100     8    10   ar
   101    79    77    1
   102    74    73    1
   103    74    77    1
   104    74    75    1
   105    77    78    1
   106    75    76    2
   107    75    80   am
   108    80    81    1
   109    82    81    1
   110    82    83    2
   111    81    84    1
   112    85    84    1
