@<TRIPOS>MOLECULE
tmp/1u3cA01.pdb
 87 86 0 0 0
SMALL
GASTEIGER

@<TRIPOS>ATOM
      1  N         61.8640   -4.4970   90.1040 N.3    50  TRP50      -0.1241
      2  CA        63.1430   -4.0720   89.5580 C.3    50  TRP50       0.1605
      3  C         63.6060   -2.8020   90.2750 C.2    50  TRP50       0.2264
      4  O         64.7540   -2.7240   90.7290 O.2    50  TRP50      -0.2867
      5  CB        63.0300   -3.8480   88.0480 C.3    50  TRP50       0.0550
      6  CG        64.3380   -3.5650   87.3740 C.ar   50  TRP50       0.0003
      7  CD1       65.0680   -2.4210   87.4680 C.ar   50  TRP50       0.0946
      8  CD2       65.1090   -4.4640   86.5640 C.ar   50  TRP50       0.0152
      9  NE1       66.2480   -2.5440   86.7820 N.ar   50  TRP50      -0.2442
     10  CE2       66.3080   -3.7890   86.2150 C.ar   50  TRP50       0.0810
     11  CE3       64.9090   -5.7750   86.1020 C.ar   50  TRP50       0.0012
     12  CZ2       67.3160   -4.3830   85.4240 C.ar   50  TRP50       0.0191
     13  CZ3       65.9100   -6.3720   85.3100 C.ar   50  TRP50       0.0001
     14  CH2       67.1010   -5.6680   84.9820 C.ar   50  TRP50       0.0015
     15  N         66.7700  -14.7720   87.1700 N.3   200  ALA200     -0.1231
     16  CA        67.1240  -14.3640   85.8140 C.3   200  ALA200      0.1694
     17  C         67.7510  -12.9910   85.7020 C.2   200  ALA200      0.2592
     18  O         68.6320  -12.7820   84.8670 O.2   200  ALA200     -0.2718
     19  CB        65.8860  -14.4230   84.9180 C.3   200  ALA200      0.0304
     20  N         67.2950  -12.0510   86.5290 N.am  201  TRP201     -0.1962
     21  CA        67.8170  -10.6900   86.4720 C.3   201  TRP201      0.1771
     22  C         68.5070  -10.1800   87.7330 C.2   201  TRP201      0.2620
     23  O         68.2470  -10.6450   88.8430 O.2   201  TRP201     -0.2715
     24  CB        66.6950   -9.7090   86.1130 C.3   201  TRP201      0.0590
     25  CG        65.8120  -10.1550   84.9930 C.ar  201  TRP201      0.0006
     26  CD1       64.7700  -11.0270   85.0720 C.ar  201  TRP201      0.0946
     27  CD2       65.9000   -9.7530   83.6190 C.ar  201  TRP201      0.0152
     28  NE1       64.1940  -11.1960   83.8310 N.ar  201  TRP201     -0.2442
     29  CE2       64.8680  -10.4260   82.9200 C.ar  201  TRP201      0.0810
     30  CE3       66.7530   -8.8900   82.9070 C.ar  201  TRP201      0.0012
     31  CZ2       64.6600  -10.2640   81.5460 C.ar  201  TRP201      0.0191
     32  CZ3       66.5430   -8.7250   81.5300 C.ar  201  TRP201      0.0001
     33  CH2       65.5000   -9.4120   80.8670 C.ar  201  TRP201      0.0015
     34  N         69.3870   -9.2020   87.5330 N.am  202  SER202     -0.1950
     35  CA        70.1060   -8.5470   88.6240 C.3   202  SER202      0.1924
     36  C         70.0010   -7.0420   88.3800 C.2   202  SER202      0.2314
     37  O         70.8650   -6.4270   87.7330 O.2   202  SER202     -0.2863
     38  CB        71.5670   -8.9670   88.6370 C.3   202  SER202      0.2116
     39  OG        71.6570  -10.3710   88.6050 O.3   202  SER202     -0.2180
     40  N         75.3390   -4.4740   87.6620 N.3   207  ASN207     -0.1240
     41  CA        74.9930   -5.5710   86.7700 C.3   207  ASN207      0.1653
     42  C         74.6230   -5.0920   85.3790 C.2   207  ASN207      0.2266
     43  O         74.6850   -5.8490   84.4190 O.2   207  ASN207     -0.2867
     44  CB        73.8410   -6.3770   87.3610 C.3   207  ASN207      0.1155
     45  CG        74.2050   -7.0070   88.6970 C.2   207  ASN207      0.2627
     46  OD1       73.7660   -6.5450   89.7600 O.2   207  ASN207     -0.2716
     47  ND2       75.0270   -8.0600   88.6490 N.am  207  ASN207     -0.0877
     48  N         77.8190   -4.9790   83.7480 N.3   210  LYS210     -0.1231
     49  CA        78.2080   -6.3460   83.4510 C.3   210  LYS210      0.1693
     50  C         77.5140   -6.8070   82.1580 C.2   210  LYS210      0.2591
     51  O         78.1670   -7.3680   81.2710 O.2   210  LYS210     -0.2718
     52  CB        77.8410   -7.2440   84.6430 C.3   210  LYS210      0.0285
     53  CG        78.4420   -8.6440   84.6410 C.3   210  LYS210      0.0035
     54  CD        77.8700   -9.5280   83.5210 C.3   210  LYS210      0.0206
     55  CE        76.3350   -9.7050   83.6290 C.3   210  LYS210      0.1093
     56  NZ        75.7400  -10.4600   82.4730 N.3   210  LYS210     -0.1314
     57  N         76.2110   -6.5300   82.0350 N.am  211  ALA211     -0.1980
     58  CA        75.4380   -6.9260   80.8470 C.3   211  ALA211      0.1597
     59  C         75.9460   -6.2820   79.5810 C.2   211  ALA211      0.2287
     60  O         76.0580   -6.9380   78.5450 O.2   211  ALA211     -0.2864
     61  CB        73.9710   -6.5920   81.0220 C.3   211  ALA211      0.0319
     62  N         69.5110  -15.8210   74.0110 N.3   233  ALA233     -0.1245
     63  CA        70.3790  -14.7780   74.5340 C.3   233  ALA233      0.1562
     64  C         71.1660  -14.0870   73.3960 C.2   233  ALA233      0.2260
     65  O         72.3910  -13.9930   73.4390 O.2   233  ALA233     -0.2867
     66  CB        71.3350  -15.3840   75.5700 C.3   233  ALA233      0.0290
     67  N         69.6280   -7.2120   76.4290 N.3   237  PHE237     -0.1241
     68  CA        68.9180   -7.3370   77.7050 C.3   237  PHE237      0.1605
     69  C         69.1560   -6.1260   78.6030 C.2   237  PHE237      0.2264
     70  O         69.0470   -6.2030   79.8280 O.2   237  PHE237     -0.2867
     71  CB        69.3350   -8.6220   78.4160 C.3   237  PHE237      0.0534
     72  CG        68.9950   -9.8370   77.6460 C.ar  237  PHE237     -0.0203
     73  CD1       67.6550  -10.1800   77.4320 C.ar  237  PHE237     -0.0042
     74  CD2       69.9850  -10.5870   77.0360 C.ar  237  PHE237     -0.0042
     75  CE1       67.3040  -11.2600   76.6060 C.ar  237  PHE237     -0.0003
     76  CE2       69.6480  -11.6720   76.2040 C.ar  237  PHE237     -0.0003
     77  CZ        68.3010  -12.0040   75.9900 C.ar  237  PHE237     -0.0000
     78  N         67.3870   -2.0890   82.4670 N.3   241  HIS241     -0.1241
     79  CA        68.4500   -1.2390   83.0050 C.3   241  HIS241      0.1621
     80  C         68.3220    0.1720   82.4170 C.2   241  HIS241      0.2264
     81  O         68.3490    1.1790   83.1440 O.2   241  HIS241     -0.2867
     82  CB        69.8390   -1.7820   82.6300 C.3   241  HIS241      0.0745
     83  CG        70.2250   -3.0490   83.3300 C.ar  241  HIS241      0.0817
     84  ND1       70.5480   -3.0920   84.6690 N.ar  241  HIS241     -0.2268
     85  CD2       70.3690   -4.3160   82.8670 C.ar  241  HIS241      0.1154
     86  CE1       70.8740   -4.3310   84.9990 C.ar  241  HIS241      0.1986
     87  NE2       70.7740   -5.0920   83.9240 N.ar  241  HIS241     -0.2212
@<TRIPOS>BOND
     1    64    65    2
     2    64    63    1
     3    62    63    1
     4    63    66    1
     5    77    76   ar
     6    77    75   ar
     7    76    74   ar
     8    67    68    1
     9    75    73   ar
    10    74    72   ar
    11    73    72   ar
    12    72    71    1
    13    68    71    1
    14    68    69    1
    15    60    59    2
    16    69    70    2
    17    59    58    1
    18    58    61    1
    19    58    57    1
    20    33    32   ar
    21    33    31   ar
    22    51    50    2
    23    32    30   ar
    24    31    29   ar
    25    57    50   am
    26    50    49    1
    27    80    79    1
    28    80    81    2
    29    78    79    1
    30    56    55    1
    31    82    79    1
    32    82    83    1
    33    85    83   ar
    34    85    87   ar
    35    30    27   ar
    36    29    27   ar
    37    29    28   ar
    38    83    84   ar
    39    49    48    1
    40    49    52    1
    41    54    55    1
    42    54    53    1
    43    27    25   ar
    44    28    26   ar
    45    87    86   ar
    46    43    42    2
    47    53    52    1
    48    84    86   ar
    49    18    17    2
    50    19    16    1
    51    14    13   ar
    52    14    12   ar
    53    25    26   ar
    54    25    24    1
    55    13    11   ar
    56    42    41    1
    57    12    10   ar
    58    17    16    1
    59    17    20   am
    60    16    15    1
    61    11     8   ar
    62    24    21    1
    63    10     8   ar
    64    10     9   ar
    65    21    20    1
    66    21    22    1
    67     8     6   ar
    68    41    44    1
    69    41    40    1
    70     9     7   ar
    71    44    45    1
    72     6     7   ar
    73     6     5    1
    74    34    22   am
    75    34    35    1
    76    37    36    2
    77    22    23    2
    78     5     2    1
    79    36    35    1
    80    39    38    1
    81    35    38    1
    82    47    45   am
    83    45    46    2
    84     2     1    1
    85     2     3    1
    86     3     4    2
