@<TRIPOS>MOLECULE
tmp/1u3cA02.pdb
 109 101 0 0 0
SMALL
GASTEIGER

@<TRIPOS>ATOM
      1  N         61.7040    8.3860   61.6080 N.3   146  PHE146     -0.1241
      2  CA        62.9200    7.8450   62.2020 C.3   146  PHE146      0.1605
      3  C         64.2120    7.9940   61.3840 C.2   146  PHE146      0.2264
      4  O         65.1490    8.6580   61.8310 O.2   146  PHE146     -0.2867
      5  CB        62.7240    6.3740   62.5800 C.3   146  PHE146      0.0534
      6  CG        63.9070    5.7810   63.2810 C.ar  146  PHE146     -0.0203
      7  CD1       64.2330    6.1730   64.5790 C.ar  146  PHE146     -0.0042
      8  CD2       64.7310    4.8730   62.6260 C.ar  146  PHE146     -0.0042
      9  CE1       65.3640    5.6710   65.2100 C.ar  146  PHE146     -0.0003
     10  CE2       65.8610    4.3630   63.2400 C.ar  146  PHE146     -0.0003
     11  CZ        66.1840    4.7640   64.5390 C.ar  146  PHE146     -0.0000
     12  N         70.7170    1.1310   65.4470 N.3   280  LYS280     -0.1245
     13  CA        69.3670    1.5400   65.0840 C.3   280  LYS280      0.1561
     14  C         68.4610    1.2790   66.2940 C.2   280  LYS280      0.2260
     15  O         67.4920    1.9940   66.5230 O.2   280  LYS280     -0.2867
     16  CB        68.8680    0.7330   63.8850 C.3   280  LYS280      0.0271
     17  CG        67.4310    1.0480   63.4800 C.3   280  LYS280      0.0035
     18  CD        66.9070    0.1390   62.3720 C.3   280  LYS280      0.0206
     19  CE        65.5160    0.5810   61.9380 C.3   280  LYS280      0.1093
     20  NZ        64.8410   -0.3760   61.0130 N.3   280  LYS280     -0.1314
     21  N         66.2330    3.8980   68.0340 N.3   284  LEU284     -0.1245
     22  CA        64.7960    3.8650   68.2420 C.3   284  LEU284      0.1561
     23  C         64.4010    4.2880   69.6460 C.2   284  LEU284      0.2260
     24  O         63.3290    4.8490   69.8480 O.2   284  LEU284     -0.2867
     25  CB        64.2560    2.4800   67.9250 C.3   284  LEU284      0.0270
     26  CG        64.2250    2.1180   66.4270 C.3   284  LEU284      0.0019
     27  CD1       64.0460    0.5990   66.2810 C.3   284  LEU284      0.0001
     28  CD2       63.0910    2.8640   65.6940 C.3   284  LEU284      0.0001
     29  N         64.6190    7.9460   69.6410 N.3   287  TYR287     -0.1241
     30  CA        63.4910    8.4730   68.8910 C.3   287  TYR287      0.1605
     31  C         62.2050    8.4680   69.7180 C.2   287  TYR287      0.2264
     32  O         61.3390    9.3270   69.5400 O.2   287  TYR287     -0.2867
     33  CB        63.2840    7.6660   67.6000 C.3   287  TYR287      0.0534
     34  CG        62.2710    8.2620   66.6290 C.ar  287  TYR287     -0.0201
     35  CD1       62.4370    9.5470   66.1130 C.ar  287  TYR287     -0.0009
     36  CD2       61.1550    7.5300   66.2150 C.ar  287  TYR287     -0.0009
     37  CE1       61.5260   10.0870   65.2120 C.ar  287  TYR287      0.0417
     38  CE2       60.2380    8.0600   65.3120 C.ar  287  TYR287      0.0417
     39  CZ        60.4310    9.3430   64.8150 C.ar  287  TYR287      0.1957
     40  OH        59.5230    9.8830   63.9330 O.3   287  TYR287     -0.2866
     41  N         61.7920   -8.4560   71.0150 N.3   347  ASP347     -0.1239
     42  CA        61.0850   -7.4870   70.1840 C.3   347  ASP347      0.1674
     43  C         60.1920   -8.1400   69.1160 C.2   347  ASP347      0.2266
     44  O         59.0540   -7.7170   68.9110 O.2   347  ASP347     -0.2867
     45  CB        62.0930   -6.5540   69.5030 C.3   347  ASP347      0.1410
     46  CG        61.4310   -5.5630   68.5540 C.2   347  ASP347      0.3668
     47  OD1       60.7670   -4.6270   69.0500 O.co2 347  ASP347     -0.2456
     48  OD2       61.5750   -5.7210   67.3140 O.co2 347  ASP347     -0.2456
     49  N         56.0910   -7.5560   68.4630 N.3   351  VAL351     -0.1245
     50  CA        55.4590   -7.0800   67.2460 C.3   351  VAL351      0.1561
     51  C         54.3720   -8.0750   66.8570 C.2   351  VAL351      0.2260
     52  O         53.2380   -7.6840   66.5750 O.2   351  VAL351     -0.2867
     53  CB        56.4880   -6.9210   66.1090 C.3   351  VAL351      0.0252
     54  CG1       55.7890   -6.8380   64.7570 C.3   351  VAL351      0.0019
     55  CG2       57.2660   -5.6730   66.3350 C.3   351  VAL351      0.0019
     56  N         58.8900    4.1770   74.9320 N.3   383  SER383     -0.1217
     57  CA        59.1000    3.0390   74.0520 C.3   383  SER383      0.1889
     58  C         57.8400    2.2030   73.8090 C.2   383  SER383      0.2288
     59  O         57.6560    1.6340   72.7310 O.2   383  SER383     -0.2866
     60  CB        60.2180    2.1820   74.5960 C.3   383  SER383      0.2089
     61  OG        61.4490    2.8460   74.3950 O.3   383  SER383     -0.2183
     62  N         55.5780    4.3350   71.3670 N.3   386  LEU386     -0.1231
     63  CA        56.1500    4.2860   70.0420 C.3   386  LEU386      0.1693
     64  C         55.8380    2.9400   69.4120 C.2   386  LEU386      0.2592
     65  O         55.3870    2.8650   68.2750 O.2   386  LEU386     -0.2718
     66  CB        57.6570    4.5000   70.1280 C.3   386  LEU386      0.0284
     67  CG        58.3920    4.3850   68.7960 C.3   386  LEU386      0.0019
     68  CD1       57.7750    5.3590   67.8110 C.3   386  LEU386      0.0001
     69  CD2       59.8780    4.6720   69.0040 C.3   386  LEU386      0.0001
     70  N         56.0640    1.8760   70.1690 N.am  387  GLY387     -0.1957
     71  CA        55.8000    0.5460   69.6580 C.3   387  GLY387      0.1869
     72  C         54.3670    0.3360   69.2170 C.2   387  GLY387      0.2309
     73  O         54.1010   -0.1490   68.1100 O.2   387  GLY387     -0.2863
     74  N         53.3520    2.5320   66.1780 N.3   390  TYR390     -0.1227
     75  CA        53.9310    2.0020   64.9700 C.3   390  TYR390      0.1736
     76  C         53.1360    0.7990   64.4590 C.2   390  TYR390      0.2595
     77  O         52.7530    0.7510   63.2920 O.2   390  TYR390     -0.2718
     78  CB        55.3830    1.5970   65.2320 C.3   390  TYR390      0.0548
     79  CG        55.9950    0.7870   64.1050 C.ar  390  TYR390     -0.0200
     80  CD1       56.4720    1.4020   62.9470 C.ar  390  TYR390     -0.0009
     81  CD2       56.0580   -0.5930   64.1860 C.ar  390  TYR390     -0.0009
     82  CE1       56.9930    0.6680   61.9100 C.ar  390  TYR390      0.0417
     83  CE2       56.5730   -1.3430   63.1530 C.ar  390  TYR390      0.0417
     84  CZ        57.0410   -0.7150   62.0180 C.ar  390  TYR390      0.1957
     85  OH        57.5520   -1.4880   60.9970 O.3   390  TYR390     -0.2866
     86  N         52.8820   -0.1660   65.3360 N.am  391  ILE391     -0.1980
     87  CA        52.1650   -1.3780   64.9490 C.3   391  ILE391      0.1595
     88  C         50.7570   -1.1150   64.4380 C.2   391  ILE391      0.2287
     89  O         50.3050   -1.7710   63.4800 O.2   391  ILE391     -0.2864
     90  CB        52.0930   -2.3880   66.1450 C.3   391  ILE391      0.0276
     91  CG1       53.4870   -2.9540   66.4130 C.3   391  ILE391      0.0022
     92  CG2       51.1270   -3.5390   65.8570 C.3   391  ILE391      0.0022
     93  CD1       54.1450   -3.5740   65.2010 C.3   391  ILE391      0.0001
     94  N         51.5780    6.1530   62.7720 N.3   395  LEU395     -0.1245
     95  CA        52.8560    6.8480   62.6840 C.3   395  LEU395      0.1561
     96  C         53.2420    7.1010   61.2410 C.2   395  LEU395      0.2260
     97  O         52.9670    6.2720   60.3700 O.2   395  LEU395     -0.2867
     98  CB        53.9770    6.0300   63.3410 C.3   395  LEU395      0.0270
     99  CG        54.1820    6.1400   64.8480 C.3   395  LEU395      0.0019
    100  CD1       55.4940    5.4530   65.2350 C.3   395  LEU395      0.0001
    101  CD2       54.2240    7.6040   65.2330 C.3   395  LEU395      0.0001
    102  N         55.7710    6.6440   59.7690 N.3   397  ASP397     -0.1239
    103  CA        56.4870    5.5100   59.2030 C.3   397  ASP397      0.1674
    104  C         55.9940    4.1350   59.6060 C.2   397  ASP397      0.2266
    105  O         56.7880    3.2200   59.7570 O.2   397  ASP397     -0.2867
    106  CB        58.0090    5.6030   59.4360 C.3   397  ASP397      0.1410
    107  CG        58.3660    6.3460   60.7010 C.2   397  ASP397      0.3668
    108  OD1       57.4500    6.8480   61.3750 O.co2 397  ASP397     -0.2456
    109  OD2       59.5740    6.4480   61.0160 O.co2 397  ASP397     -0.2456
@<TRIPOS>BOND
     1   103   106    1
     2   103   104    1
     3   103   102    1
     4   106   107    1
     5   104   105    2
     6    97    96    2
     7   107   109   ar
     8   107   108   ar
     9    85    84    1
    10    20    19    1
    11    96    95    1
    12     3     4    2
    13     3     2    1
    14     1     2    1
    15    82    84   ar
    16    82    80   ar
    17    19    18    1
    18    84    83   ar
    19     2     5    1
    20    18    17    1
    21     5     6    1
    22     8    10   ar
    23     8     6   ar
    24    95    94    1
    25    95    98    1
    26    80    79   ar
    27    83    81   ar
    28    10    11   ar
    29     6     7   ar
    30    77    76    2
    31    98    99    1
    32    89    88    2
    33    17    16    1
    34    16    13    1
    35    40    39    1
    36    79    81   ar
    37    79    78    1
    38    88    87    1
    39    76    75    1
    40    76    86   am
    41    11     9   ar
    42     7     9   ar
    43    54    53    1
    44    39    37   ar
    45    39    38   ar
    46    99   101    1
    47    99   100    1
    48    87    86    1
    49    87    90    1
    50    75    78    1
    51    75    74    1
    52    13    12    1
    53    13    14    1
    54    93    91    1
    55    37    35   ar
    56    38    36   ar
    57    28    26    1
    58    92    90    1
    59    53    55    1
    60    53    50    1
    61    35    34   ar
    62    90    91    1
    63    36    34   ar
    64    27    26    1
    65    14    15    2
    66    26    25    1
    67    52    51    2
    68    34    33    1
    69    51    50    1
    70    50    49    1
    71    48    46   ar
    72    33    30    1
    73    68    67    1
    74    25    22    1
    75    21    22    1
    76    73    72    2
    77    22    23    1
    78    65    64    2
    79    46    47   ar
    80    46    45    1
    81    67    69    1
    82    67    66    1
    83    30    29    1
    84    30    31    1
    85    44    43    2
    86    43    42    1
    87    72    71    1
    88    64    63    1
    89    64    70   am
    90    45    42    1
    91    32    31    2
    92    23    24    2
    93    71    70    1
    94    63    66    1
    95    63    62    1
    96    42    41    1
    97    59    58    2
    98    58    57    1
    99    57    60    1
   100    57    56    1
   101    61    60    1
