@<TRIPOS>MOLECULE
tmp/1u3dA01.pdb
 175 165 0 0 0
SMALL
GASTEIGER

@<TRIPOS>ATOM
      1  N         61.4570    8.4110   61.8720 N.3   146  PHE146     -0.1241
      2  CA        62.6570    7.8900   62.4800 C.3   146  PHE146      0.1605
      3  C         63.9520    8.0460   61.6690 C.2   146  PHE146      0.2264
      4  O         64.8990    8.6810   62.1370 O.2   146  PHE146     -0.2867
      5  CB        62.4670    6.4200   62.8730 C.3   146  PHE146      0.0534
      6  CG        63.6730    5.8450   63.5170 C.ar  146  PHE146     -0.0203
      7  CD1       64.0320    6.2250   64.8020 C.ar  146  PHE146     -0.0042
      8  CD2       64.5000    4.9770   62.8190 C.ar  146  PHE146     -0.0042
      9  CE1       65.1890    5.7540   65.3790 C.ar  146  PHE146     -0.0003
     10  CE2       65.6650    4.4910   63.3920 C.ar  146  PHE146     -0.0003
     11  CZ        66.0100    4.8890   64.6830 C.ar  146  PHE146     -0.0000
     12  N         68.5250  -11.8870   65.0910 N.3   227  ARG227     -0.1231
     13  CA        67.2450  -11.3280   65.5380 C.3   227  ARG227      0.1694
     14  C         65.9460  -12.0310   65.1970 C.2   227  ARG227      0.2591
     15  O         64.8850  -11.6500   65.6890 O.2   227  ARG227     -0.2718
     16  CB        67.1340   -9.8670   65.1910 C.3   227  ARG227      0.0321
     17  CG        67.8380   -9.4930   63.9460 C.3   227  ARG227      0.0489
     18  CD        66.9000   -8.8680   62.9520 C.3   227  ARG227      0.2205
     19  NE        67.2200   -9.3510   61.6210 N.pl3 227  ARG227     -0.0865
     20  CZ        67.2360   -8.6080   60.5200 C.cat 227  ARG227      0.5346
     21  NH1       66.9470   -7.3070   60.5540 N.pl3 227  ARG227      0.1354
     22  NH2       67.5540   -9.1870   59.3710 N.pl3 227  ARG227      0.1354
     23  N         65.9910  -13.0070   64.3040 N.am  228  ARG228     -0.1980
     24  CA        64.7780  -13.7580   64.0760 C.3   228  ARG228      0.1597
     25  C         64.7660  -14.8070   65.1960 C.2   228  ARG228      0.2287
     26  O         63.9780  -15.7270   65.1800 O.2   228  ARG228     -0.2864
     27  CB        64.7660  -14.4050   62.6880 C.3   228  ARG228      0.0334
     28  CG        64.6050  -13.3890   61.5820 C.3   228  ARG228      0.0492
     29  CD        64.2460  -14.0000   60.2390 C.3   228  ARG228      0.2205
     30  NE        64.1450  -12.9600   59.2130 N.pl3 228  ARG228     -0.0865
     31  CZ        63.5360  -13.1070   58.0360 C.cat 228  ARG228      0.5346
     32  NH1       62.9550  -14.2590   57.7130 N.pl3 228  ARG228      0.1354
     33  NH2       63.5180  -12.1020   57.1710 N.pl3 228  ARG228      0.1354
     34  N         72.4370   -2.3390   63.1970 N.3   277  LEU277     -0.1245
     35  CA        71.1100   -2.6820   63.7030 C.3   277  LEU277      0.1561
     36  C         71.0090   -2.3810   65.2250 C.2   277  LEU277      0.2260
     37  O         70.0110   -1.8260   65.7250 O.2   277  LEU277     -0.2867
     38  CB        70.8230   -4.1430   63.3770 C.3   277  LEU277      0.0270
     39  CG        69.3570   -4.5890   63.2240 C.3   277  LEU277      0.0019
     40  CD1       69.2800   -5.9730   62.5470 C.3   277  LEU277      0.0001
     41  CD2       68.7200   -4.6500   64.5830 C.3   277  LEU277      0.0001
     42  N         70.5790    1.1520   65.6930 N.3   280  LYS280     -0.1245
     43  CA        69.2200    1.5640   65.3240 C.3   280  LYS280      0.1561
     44  C         68.3050    1.2950   66.5270 C.2   280  LYS280      0.2260
     45  O         67.2920    1.9640   66.7290 O.2   280  LYS280     -0.2867
     46  CB        68.7210    0.7680   64.1320 C.3   280  LYS280      0.0271
     47  CG        67.2840    1.0920   63.7290 C.3   280  LYS280      0.0035
     48  CD        66.7920    0.2150   62.5800 C.3   280  LYS280      0.0206
     49  CE        65.4150    0.6630   62.0930 C.3   280  LYS280      0.1093
     50  NZ        64.8410   -0.2430   61.0550 N.3   280  LYS280     -0.1314
     51  N         66.0350    4.0230   68.2800 N.3   284  LEU284     -0.1245
     52  CA        64.5970    3.9800   68.5240 C.3   284  LEU284      0.1561
     53  C         64.2380    4.4170   69.9220 C.2   284  LEU284      0.2260
     54  O         63.2040    5.0310   70.1290 O.2   284  LEU284     -0.2867
     55  CB        64.0390    2.5870   68.2620 C.3   284  LEU284      0.0270
     56  CG        63.9790    2.2900   66.7520 C.3   284  LEU284      0.0019
     57  CD1       63.8830    0.8180   66.5630 C.3   284  LEU284      0.0001
     58  CD2       62.7920    3.0170   66.0490 C.3   284  LEU284      0.0001
     59  N         64.5120    8.0410   69.9220 N.3   287  TYR287     -0.1241
     60  CA        63.3660    8.5820   69.1990 C.3   287  TYR287      0.1605
     61  C         62.0540    8.5480   69.9980 C.2   287  TYR287      0.2264
     62  O         61.1450    9.3420   69.7450 O.2   287  TYR287     -0.2867
     63  CB        63.1690    7.8230   67.8850 C.3   287  TYR287      0.0534
     64  CG        62.1150    8.4200   66.9430 C.ar  287  TYR287     -0.0201
     65  CD1       62.2660    9.7050   66.3970 C.ar  287  TYR287     -0.0009
     66  CD2       61.0020    7.6730   66.5470 C.ar  287  TYR287     -0.0009
     67  CE1       61.3380   10.2150   65.4810 C.ar  287  TYR287      0.0417
     68  CE2       60.0750    8.1720   65.6360 C.ar  287  TYR287      0.0417
     69  CZ        60.2470    9.4490   65.1100 C.ar  287  TYR287      0.1957
     70  OH        59.2900    9.9640   64.2640 O.3   287  TYR287     -0.2866
     71  N         61.7920   -8.3670   71.2990 N.3   347  ASP347     -0.1225
     72  CA        61.0590   -7.4170   70.4770 C.3   347  ASP347      0.1805
     73  C         60.1680   -8.0740   69.3810 C.2   347  ASP347      0.2597
     74  O         59.0560   -7.6200   69.1350 O.2   347  ASP347     -0.2718
     75  CB        62.0390   -6.4280   69.8340 C.3   347  ASP347      0.1424
     76  CG        61.3590   -5.5300   68.8020 C.2   347  ASP347      0.3668
     77  OD1       60.6310   -4.6030   69.2220 O.co2 347  ASP347     -0.2456
     78  OD2       61.5260   -5.7670   67.5720 O.co2 347  ASP347     -0.2456
     79  N         60.6380   -9.1240   68.7080 N.am  348  ARG348     -0.1979
     80  CA        59.7950   -9.6880   67.6670 C.3   348  ARG348      0.1597
     81  C         58.4700  -10.2240   68.1620 C.2   348  ARG348      0.2287
     82  O         57.4550  -10.0820   67.4770 O.2   348  ARG348     -0.2864
     83  CB        60.5080  -10.7970   66.8840 C.3   348  ARG348      0.0334
     84  CG        61.6800  -10.2950   66.0500 C.3   348  ARG348      0.0492
     85  CD        61.3220   -9.0440   65.2210 C.3   348  ARG348      0.2205
     86  NE        62.4460   -8.5440   64.4200 N.pl3 348  ARG348     -0.0865
     87  CZ        63.5440   -7.9550   64.9090 C.cat 348  ARG348      0.5346
     88  NH1       63.7100   -7.7730   66.2200 N.pl3 348  ARG348      0.1354
     89  NH2       64.4820   -7.5260   64.0700 N.pl3 348  ARG348      0.1354
     90  N         56.0690   -7.4630   68.7460 N.3   351  VAL351     -0.1245
     91  CA        55.4670   -7.0180   67.5080 C.3   351  VAL351      0.1561
     92  C         54.3650   -8.0070   67.1080 C.2   351  VAL351      0.2260
     93  O         53.2290   -7.6020   66.8360 O.2   351  VAL351     -0.2867
     94  CB        56.5300   -6.8880   66.4050 C.3   351  VAL351      0.0252
     95  CG1       55.8620   -6.6870   65.0510 C.3   351  VAL351      0.0019
     96  CG2       57.4290   -5.6930   66.7070 C.3   351  VAL351      0.0019
     97  N         55.4300    4.4690   71.6400 N.3   386  LEU386     -0.1231
     98  CA        56.0290    4.4640   70.3320 C.3   386  LEU386      0.1693
     99  C         55.7970    3.1180   69.6820 C.2   386  LEU386      0.2592
    100  O         55.3850    3.0540   68.5560 O.2   386  LEU386     -0.2718
    101  CB        57.5260    4.7720   70.4400 C.3   386  LEU386      0.0284
    102  CG        58.3010    4.5430   69.1410 C.3   386  LEU386      0.0019
    103  CD1       57.7740    5.5030   68.0860 C.3   386  LEU386      0.0001
    104  CD2       59.7880    4.7230   69.3810 C.3   386  LEU386      0.0001
    105  N         56.0270    2.0280   70.3920 N.am  387  GLY387     -0.1957
    106  CA        55.8210    0.7170   69.7760 C.3   387  GLY387      0.1869
    107  C         54.3730    0.4600   69.3660 C.2   387  GLY387      0.2309
    108  O         54.1030   -0.0290   68.2510 O.2   387  GLY387     -0.2863
    109  N         53.3280    2.6520   66.3730 N.3   390  TYR390     -0.1227
    110  CA        53.9320    2.1670   65.1590 C.3   390  TYR390      0.1736
    111  C         53.1940    0.9210   64.6390 C.2   390  TYR390      0.2595
    112  O         52.9180    0.8120   63.4340 O.2   390  TYR390     -0.2718
    113  CB        55.4300    1.8710   65.3990 C.3   390  TYR390      0.0548
    114  CG        56.0720    1.1060   64.2410 C.ar  390  TYR390     -0.0200
    115  CD1       56.4610    1.7480   63.0330 C.ar  390  TYR390     -0.0009
    116  CD2       56.2000   -0.2630   64.3120 C.ar  390  TYR390     -0.0009
    117  CE1       56.9490    1.0200   61.9520 C.ar  390  TYR390      0.0417
    118  CE2       56.6930   -0.9970   63.2510 C.ar  390  TYR390      0.0417
    119  CZ        57.0670   -0.3750   62.0850 C.ar  390  TYR390      0.1957
    120  OH        57.5990   -1.1940   61.1020 O.3   390  TYR390     -0.2866
    121  N         52.8430   -0.0070   65.5340 N.am  391  ILE391     -0.1980
    122  CA        52.1780   -1.2570   65.1080 C.3   391  ILE391      0.1595
    123  C         50.7680   -1.0460   64.5920 C.2   391  ILE391      0.2287
    124  O         50.3510   -1.6980   63.6180 O.2   391  ILE391     -0.2864
    125  CB        52.1230   -2.2970   66.2840 C.3   391  ILE391      0.0276
    126  CG1       53.5370   -2.7350   66.6320 C.3   391  ILE391      0.0022
    127  CG2       51.3220   -3.5170   65.9170 C.3   391  ILE391      0.0022
    128  CD1       54.2810   -3.3480   65.4990 C.3   391  ILE391      0.0001
    129  N         51.3690    6.1860   62.9770 N.3   395  LEU395     -0.1245
    130  CA        52.6100    6.9530   62.8850 C.3   395  LEU395      0.1561
    131  C         52.9750    7.2000   61.4360 C.2   395  LEU395      0.2260
    132  O         52.7040    6.3480   60.5900 O.2   395  LEU395     -0.2867
    133  CB        53.7740    6.2100   63.5560 C.3   395  LEU395      0.0270
    134  CG        53.9300    6.2820   65.0780 C.3   395  LEU395      0.0019
    135  CD1       55.2470    5.5860   65.4900 C.3   395  LEU395      0.0001
    136  CD2       53.8950    7.7500   65.5130 C.3   395  LEU395      0.0001
    137  N         55.5820    6.8970   59.8660 N.3   397  ASP397     -0.1239
    138  CA        56.3120    5.7770   59.2880 C.3   397  ASP397      0.1674
    139  C         55.8680    4.3570   59.6780 C.2   397  ASP397      0.2266
    140  O         56.6960    3.4670   59.7160 O.2   397  ASP397     -0.2867
    141  CB        57.8220    5.9210   59.5080 C.3   397  ASP397      0.1410
    142  CG        58.1770    6.4800   60.8560 C.2   397  ASP397      0.3668
    143  OD1       57.2800    6.9770   61.5720 O.co2 397  ASP397     -0.2456
    144  OD2       59.3720    6.4750   61.1880 O.co2 397  ASP397     -0.2456
    145  N         53.7600    0.6690   59.0210 N.3   399  ARG399     -0.1245
    146  CA        53.5550   -0.1280   57.8100 C.3   399  ARG399      0.1563
    147  C         52.1080    0.0500   57.3680 C.2   399  ARG399      0.2260
    148  O         51.2830    0.6630   58.0840 O.2   399  ARG399     -0.2867
    149  CB        53.8330   -1.6160   58.0750 C.3   399  ARG399      0.0307
    150  CG        55.1320   -1.9310   58.8640 C.3   399  ARG399      0.0489
    151  CD        54.8150   -2.3170   60.3700 C.3   399  ARG399      0.2205
    152  NE        55.3020   -3.6760   60.7540 N.pl3 399  ARG399     -0.0865
    153  CZ        54.5190   -4.6510   61.2270 C.cat 399  ARG399      0.5346
    154  NH1       53.2140   -4.4090   61.3900 N.pl3 399  ARG399      0.1354
    155  NH2       55.0270   -5.8650   61.4970 N.pl3 399  ARG399      0.1354
    156  N         58.8300  -18.2800   60.5130 N.3   413  LYS413     -0.1231
    157  CA        59.9950  -17.4020   60.5240 C.3   413  LYS413      0.1693
    158  C         60.7410  -17.4280   61.8650 C.2   413  LYS413      0.2592
    159  O         61.8960  -17.7950   61.9150 O.2   413  LYS413     -0.2718
    160  CB        59.6100  -15.9470   60.2670 C.3   413  LYS413      0.0285
    161  CG        59.2940  -15.5860   58.8600 C.3   413  LYS413      0.0035
    162  CD        58.6990  -14.1770   58.7860 C.3   413  LYS413      0.0206
    163  CE        59.6230  -13.1090   59.3980 C.3   413  LYS413      0.1093
    164  NZ        59.0310  -11.7400   59.2400 N.3   413  LYS413     -0.1314
    165  N         60.0780  -17.0390   62.9520 N.am  414  PHE414     -0.1976
    166  CA        60.7400  -16.9400   64.2530 C.3   414  PHE414      0.1639
    167  C         60.8720  -18.1700   65.1090 C.2   414  PHE414      0.2290
    168  O         61.7450  -18.1920   65.9650 O.2   414  PHE414     -0.2864
    169  CB        60.0710  -15.8480   65.0710 C.3   414  PHE414      0.0560
    170  CG        59.9620  -14.5480   64.3380 C.ar  414  PHE414     -0.0200
    171  CD1       61.0770  -13.7580   64.1360 C.ar  414  PHE414     -0.0042
    172  CD2       58.7480  -14.1110   63.8280 C.ar  414  PHE414     -0.0042
    173  CE1       60.9830  -12.5410   63.4350 C.ar  414  PHE414     -0.0003
    174  CE2       58.6490  -12.8960   63.1280 C.ar  414  PHE414     -0.0003
    175  CZ        59.7640  -12.1160   62.9370 C.ar  414  PHE414     -0.0000
@<TRIPOS>BOND
     1    33    31    1
     2   147   146    1
     3   147   148    2
     4    32    31    1
     5   146   149    1
     6   146   145    1
     7    31    30    2
     8   149   150    1
     9   162   161    1
    10   162   163    1
    11   161   160    1
    12   150   151    1
    13    30    29    1
    14   164   163    1
    15   138   141    1
    16   138   139    1
    17   138   137    1
    18    22    20    1
    19   141   142    1
    20   139   140    2
    21    29    28    1
    22   160   157    1
    23   151   152    1
    24   156   157    1
    25    20    21    1
    26    20    19    2
    27   157   158    1
    28   132   131    2
    29   152   153    2
    30   142   144   ar
    31   142   143   ar
    32    50    49    1
    33   120   119    1
    34   153   154    1
    35   153   155    1
    36   131   130    1
    37    28    27    1
    38    19    18    1
    39     3     4    2
    40     3     2    1
    41   158   159    2
    42   158   165   am
    43     1     2    1
    44   117   119   ar
    45   117   115   ar
    46   119   118   ar
    47    49    48    1
    48     2     5    1
    49    40    39    1
    50    48    47    1
    51    27    24    1
    52     8    10   ar
    53     8     6   ar
    54     5     6    1
    55   130   129    1
    56   130   133    1
    57   175   174   ar
    58   175   173   ar
    59   165   166    1
    60    18    17    1
    61   115   114   ar
    62   174   172   ar
    63    34    35    1
    64    39    38    1
    65    39    41    1
    66   118   116   ar
    67    38    35    1
    68    10    11   ar
    69   112   111    2
    70   173   171   ar
    71     6     7   ar
    72   133   134    1
    73   124   123    2
    74    35    36    1
    75    47    46    1
    76   172   170   ar
    77    17    16    1
    78    89    87    1
    79    24    23    1
    80    24    25    1
    81    46    43    1
    82   171   170   ar
    83   114   116   ar
    84   114   113    1
    85   166   169    1
    86   166   167    1
    87    70    69    1
    88    23    14   am
    89   170   169    1
    90    86    87    2
    91    86    85    1
    92   123   122    1
    93   111   110    1
    94   111   121   am
    95    11     9   ar
    96     7     9   ar
    97    87    88    1
    98    95    94    1
    99   134   135    1
   100   134   136    1
   101    12    13    1
   102   122   121    1
   103   122   125    1
   104   167   168    2
   105    69    67   ar
   106    69    68   ar
   107   110   113    1
   108   110   109    1
   109    26    25    2
   110    16    13    1
   111    14    13    1
   112    14    15    2
   113    85    84    1
   114    36    37    2
   115    43    42    1
   116    43    44    1
   117    67    65   ar
   118   128   126    1
   119    68    66   ar
   120   127   125    1
   121    58    56    1
   122    84    83    1
   123   125   126    1
   124    65    64   ar
   125    94    96    1
   126    94    91    1
   127    44    45    2
   128    66    64   ar
   129    57    56    1
   130    56    55    1
   131    93    92    2
   132    83    80    1
   133    64    63    1
   134    92    91    1
   135    82    81    2
   136    91    90    1
   137    78    76   ar
   138    80    81    1
   139    80    79    1
   140    63    60    1
   141   103   102    1
   142   108   107    2
   143    55    52    1
   144    51    52    1
   145    52    53    1
   146   100    99    2
   147    79    73   am
   148    76    77   ar
   149    76    75    1
   150    74    73    2
   151   102   104    1
   152   102   101    1
   153    60    59    1
   154    60    61    1
   155   107   106    1
   156    73    72    1
   157    99    98    1
   158    99   105   am
   159    62    61    2
   160   106   105    1
   161    75    72    1
   162    53    54    2
   163    98   101    1
   164    98    97    1
   165    72    71    1
