@<TRIPOS>MOLECULE
tmp/1u3fB00.pdb
 128 124 0 0 0
SMALL
GASTEIGER

@<TRIPOS>ATOM
      1  N        -15.2660   69.7320   29.2660 N.3     3  LYS3       -0.1245
      2  CA       -16.0190   68.6640   28.6140 C.3     3  LYS3        0.1561
      3  C        -17.5190   68.8980   28.5810 C.2     3  LYS3        0.2260
      4  O        -18.0960   69.0650   27.5080 O.2     3  LYS3       -0.2867
      5  CB       -15.7350   67.3040   29.2690 C.3     3  LYS3        0.0271
      6  CG       -14.5120   66.5880   28.7050 C.3     3  LYS3        0.0035
      7  CD       -14.4760   65.1300   29.1370 C.3     3  LYS3        0.0206
      8  CE       -13.2820   64.3990   28.5350 C.3     3  LYS3        0.1093
      9  NZ       -13.2040   62.9910   28.9990 N.3     3  LYS3       -0.1314
     10  N        -20.6970   69.7610   25.4830 N.3     7  ARG7       -0.1245
     11  CA       -21.8040   68.8080   25.4260 C.3     7  ARG7        0.1563
     12  C        -23.1020   69.5780   25.2420 C.2     7  ARG7        0.2260
     13  O        -24.1480   69.0010   24.9470 O.2     7  ARG7       -0.2867
     14  CB       -21.8990   67.9700   26.7070 C.3     7  ARG7        0.0307
     15  CG       -21.0860   66.6730   26.7200 C.3     7  ARG7        0.0489
     16  CD       -21.6580   65.7250   27.7700 C.3     7  ARG7        0.2205
     17  NE       -20.8380   64.5400   27.9980 N.pl3   7  ARG7       -0.0865
     18  CZ       -19.6520   64.5540   28.5980 C.cat   7  ARG7        0.5346
     19  NH1      -19.1390   65.6970   29.0330 N.pl3   7  ARG7        0.1354
     20  NH2      -18.9830   63.4210   28.7730 N.pl3   7  ARG7        0.1354
     21  N        -12.7520   61.8620   21.4810 N.3   115  ARG115     -0.1231
     22  CA       -14.1640   62.1650   21.3560 C.3   115  ARG115      0.1694
     23  C        -14.8670   62.4520   22.6770 C.2   115  ARG115      0.2592
     24  O        -14.3680   62.1200   23.7500 O.2   115  ARG115     -0.2718
     25  CB       -14.8820   61.0210   20.6410 C.3   115  ARG115      0.0321
     26  CG       -15.4970   59.9880   21.5630 C.3   115  ARG115      0.0489
     27  CD       -16.2490   58.9210   20.7780 C.3   115  ARG115      0.2205
     28  NE       -17.0620   58.0960   21.6650 N.pl3 115  ARG115     -0.0865
     29  CZ       -18.1890   58.5130   22.2300 C.cat 115  ARG115      0.5346
     30  NH1      -18.6220   59.7370   21.9790 N.pl3 115  ARG115      0.1354
     31  NH2      -18.8720   57.7280   23.0580 N.pl3 115  ARG115      0.1354
     32  N        -16.0370   63.0740   22.5680 N.am  116  LEU116     -0.1966
     33  CA       -16.8700   63.4260   23.7060 C.3   116  LEU116      0.1728
     34  C        -18.2220   62.7220   23.5350 C.2   116  LEU116      0.2617
     35  O        -18.8280   62.7950   22.4700 O.2   116  LEU116     -0.2715
     36  CB       -17.0550   64.9490   23.7440 C.3   116  LEU116      0.0311
     37  CG       -18.0060   65.5900   24.7580 C.3   116  LEU116      0.0022
     38  CD1      -17.6290   65.1920   26.1700 C.3   116  LEU116      0.0001
     39  CD2      -17.9350   67.0880   24.5980 C.3   116  LEU116      0.0001
     40  N        -18.6820   62.0310   24.5770 N.am  117  GLY117     -0.1940
     41  CA       -19.9530   61.3280   24.5040 C.3   117  GLY117      0.2014
     42  C        -20.9810   61.9210   25.4500 C.2   117  GLY117      0.2639
     43  O        -20.9220   63.1110   25.7620 O.2   117  GLY117     -0.2714
     44  N        -21.9270   61.1080   25.9130 N.am  118  PHE118     -0.1959
     45  CA       -22.9400   61.6160   26.8240 C.3   118  PHE118      0.1771
     46  C        -22.5470   61.5570   28.2980 C.2   118  PHE118      0.2620
     47  O        -23.3500   61.8820   29.1690 O.2   118  PHE118     -0.2715
     48  CB       -24.2770   60.9030   26.6100 C.3   118  PHE118      0.0574
     49  CG       -24.9810   61.3070   25.3450 C.ar  118  PHE118     -0.0200
     50  CD1      -24.7630   60.6100   24.1540 C.ar  118  PHE118     -0.0042
     51  CD2      -25.8450   62.4020   25.3340 C.ar  118  PHE118     -0.0042
     52  CE1      -25.3920   60.9940   22.9710 C.ar  118  PHE118     -0.0003
     53  CE2      -26.4800   62.7990   24.1540 C.ar  118  PHE118     -0.0003
     54  CZ       -26.2510   62.0890   22.9690 C.ar  118  PHE118     -0.0000
     55  N        -21.3190   61.1390   28.5810 N.am  119  GLY119     -0.1940
     56  CA       -20.8650   61.1210   29.9630 C.3   119  GLY119      0.2014
     57  C        -20.6930   59.8120   30.7100 C.2   119  GLY119      0.2639
     58  O        -19.8270   59.7230   31.5840 O.2   119  GLY119     -0.2714
     59  N        -21.5010   58.8040   30.4000 N.am  120  LYS120     -0.1963
     60  CA       -21.3790   57.5340   31.0960 C.3   120  LYS120      0.1728
     61  C        -20.0470   56.8470   30.7950 C.2   120  LYS120      0.2616
     62  O        -19.5440   56.0870   31.6130 O.2   120  LYS120     -0.2715
     63  CB       -22.5400   56.6050   30.7340 C.3   120  LYS120      0.0311
     64  CG       -23.8810   57.0130   31.3140 C.3   120  LYS120      0.0038
     65  CD       -24.3880   58.2890   30.6650 C.3   120  LYS120      0.0206
     66  CE       -25.7420   58.7380   31.2310 C.3   120  LYS120      0.1093
     67  NZ       -26.2760   59.9360   30.4950 N.3   120  LYS120     -0.1314
     68  N        -19.4830   57.1160   29.6210 N.am  121  GLY121     -0.1955
     69  CA       -18.2100   56.5180   29.2470 C.3   121  GLY121      0.1869
     70  C        -18.2330   55.0610   28.8130 C.2   121  GLY121      0.2309
     71  O        -17.2430   54.3490   28.9910 O.2   121  GLY121     -0.2863
     72  N        -15.3750   54.3320   26.1450 N.3   124  ASP124     -0.1225
     73  CA       -14.0200   54.3570   26.6870 C.3   124  ASP124      0.1805
     74  C        -13.7390   53.0210   27.3610 C.2   124  ASP124      0.2597
     75  O        -12.6760   52.4340   27.1890 O.2   124  ASP124     -0.2718
     76  CB       -13.8400   55.5080   27.6910 C.3   124  ASP124      0.1424
     77  CG       -13.7800   56.8720   27.0140 C.2   124  ASP124      0.3668
     78  OD1      -13.2830   56.9400   25.8720 O.co2 124  ASP124     -0.2456
     79  OD2      -14.2080   57.8810   27.6230 O.co2 124  ASP124     -0.2456
     80  N        -14.7000   52.5340   28.1320 N.am  125  ARG125     -0.1979
     81  CA       -14.5430   51.2480   28.8010 C.3   125  ARG125      0.1597
     82  C        -14.5160   50.1040   27.7940 C.2   125  ARG125      0.2287
     83  O        -13.6310   49.2530   27.8270 O.2   125  ARG125     -0.2864
     84  CB       -15.6900   51.0200   29.7890 C.3   125  ARG125      0.0334
     85  CG       -15.3510   51.3480   31.2240 C.3   125  ARG125      0.0492
     86  CD       -16.5710   51.2590   32.1330 C.3   125  ARG125      0.2205
     87  NE       -17.3920   52.4530   32.0240 N.pl3 125  ARG125     -0.0865
     88  CZ       -17.5360   53.3500   32.9910 C.cat 125  ARG125      0.5346
     89  NH1      -16.9180   53.1870   34.1530 N.pl3 125  ARG125      0.1354
     90  NH2      -18.2780   54.4250   32.7850 N.pl3 125  ARG125      0.1354
     91  N        -11.3880   49.8040   25.0990 N.3   128  MET128     -0.1245
     92  CA       -10.1150   49.4480   25.7040 C.3   128  MET128      0.1570
     93  C         -9.8150   47.9490   25.5180 C.2   128  MET128      0.2261
     94  O         -8.6740   47.5160   25.6540 O.2   128  MET128     -0.2867
     95  CB       -10.1560   49.8170   27.1950 C.3   128  MET128      0.0387
     96  CG        -8.8370   49.6810   27.9510 C.3   128  MET128      0.0595
     97  SD        -8.8930   50.4410   29.6150 S.3   128  MET128     -0.1393
     98  CE        -9.0460   48.9720   30.6890 C.3   128  MET128      0.0692
     99  N         -9.1040   63.3090   28.8090 N.3   151  ASP151     -0.1239
    100  CA        -8.7620   62.7740   30.1220 C.3   151  ASP151      0.1674
    101  C         -7.9360   61.4940   29.8990 C.2   151  ASP151      0.2266
    102  O         -7.9450   60.9300   28.8150 O.2   151  ASP151     -0.2867
    103  CB       -10.0400   62.4630   30.9100 C.3   151  ASP151      0.1410
    104  CG       -10.6980   63.7130   31.4750 C.2   151  ASP151      0.3668
    105  OD1      -10.0210   64.4170   32.2440 O.co2 151  ASP151     -0.2456
    106  OD2      -11.8780   63.9970   31.1660 O.co2 151  ASP151     -0.2456
    107  N         -8.3730   58.4080   30.6660 N.3   153  TRP153     -0.1227
    108  CA        -9.1370   57.2110   30.3480 C.3   153  TRP153      0.1737
    109  C         -9.8310   57.2650   28.9840 C.2   153  TRP153      0.2595
    110  O        -10.5860   56.3610   28.6360 O.2   153  TRP153     -0.2718
    111  CB       -10.1880   56.9960   31.4260 C.3   153  TRP153      0.0564
    112  CG       -11.1770   58.1270   31.5110 C.ar  153  TRP153      0.0003
    113  CD1      -12.2260   58.3700   30.6660 C.ar  153  TRP153      0.0946
    114  CD2      -11.2000   59.1740   32.4900 C.ar  153  TRP153      0.0152
    115  NE1      -12.9040   59.5000   31.0620 N.ar  153  TRP153     -0.2442
    116  CE2      -12.2960   60.0160   32.1770 C.ar  153  TRP153      0.0810
    117  CE3      -10.4020   59.4860   33.6020 C.ar  153  TRP153      0.0012
    118  CZ2      -12.6130   61.1490   32.9360 C.ar  153  TRP153      0.0191
    119  CZ3      -10.7170   60.6130   34.3550 C.ar  153  TRP153      0.0001
    120  CH2      -11.8140   61.4310   34.0190 C.ar  153  TRP153      0.0015
    121  N         -9.5900   58.3200   28.2170 N.am  154  ASP154     -0.1974
    122  CA       -10.2260   58.4540   26.9150 C.3   154  ASP154      0.1709
    123  C         -9.5200   57.6580   25.8330 C.2   154  ASP154      0.2293
    124  O         -8.3060   57.7580   25.6780 O.2   154  ASP154     -0.2864
    125  CB       -10.2710   59.9240   26.5040 C.3   154  ASP154      0.1436
    126  CG       -11.2530   60.7290   27.3220 C.2   154  ASP154      0.3671
    127  OD1      -11.1850   61.9740   27.2670 O.co2 154  ASP154     -0.2456
    128  OD2      -12.1000   60.1200   28.0110 O.co2 154  ASP154     -0.2456
@<TRIPOS>BOND
     1    25    22    1
     2    25    26    1
     3    27    26    1
     4    27    28    1
     5    22    21    1
     6    22    23    1
     7    28    29    2
     8    30    29    1
     9    29    31    1
    10    35    34    2
    11    32    23   am
    12    32    33    1
    13    23    24    2
    14    54    52   ar
    15    54    53   ar
    16    52    50   ar
    17    34    33    1
    18    34    40   am
    19    33    36    1
    20    36    37    1
    21    53    51   ar
    22    50    49   ar
    23    41    40    1
    24    41    42    1
    25    39    37    1
    26    37    38    1
    27    13    12    2
    28    91    92    1
    29    12    11    1
    30    51    49   ar
    31    49    48    1
    32    11    10    1
    33    11    14    1
    34    42    43    2
    35    42    44   am
    36    93    94    2
    37    93    92    1
    38   124   123    2
    39    92    95    1
    40   123   122    1
    41    78    77   ar
    42    44    45    1
    43    72    73    1
    44   125   122    1
    45   125   126    1
    46    48    45    1
    47    73    74    1
    48    73    76    1
    49    14    15    1
    50    15    16    1
    51    45    46    1
    52   122   121    1
    53    77    79   ar
    54    77    76    1
    55    75    74    2
    56    95    96    1
    57   127   126   ar
    58   126   128   ar
    59    74    80   am
    60     4     3    2
    61    16    17    1
    62    82    83    2
    63    82    81    1
    64    96    97    1
    65    17    18    2
    66    80    81    1
    67   121   109   am
    68    46    55   am
    69    46    47    2
    70     8     9    1
    71     8     7    1
    72     3     2    1
    73    55    56    1
    74    18    20    1
    75    18    19    1
    76     2     1    1
    77     2     5    1
    78   110   109    2
    79     6     7    1
    80     6     5    1
    81    81    84    1
    82    99   100    1
    83    70    71    2
    84    70    69    1
    85   102   101    2
    86   109   108    1
    87    69    68    1
    88    97    98    1
    89    68    61   am
    90    84    85    1
    91   101   100    1
    92    56    57    1
    93   100   103    1
    94   108   107    1
    95   108   111    1
    96    59    57   am
    97    59    60    1
    98    67    66    1
    99    65    66    1
   100    65    64    1
   101   113   115   ar
   102   113   112   ar
   103    57    58    2
   104    63    60    1
   105    63    64    1
   106    61    60    1
   107    61    62    2
   108   103   104    1
   109   115   116   ar
   110   106   104   ar
   111    85    86    1
   112   111   112    1
   113   104   105   ar
   114   112   114   ar
   115    87    86    1
   116    87    88    2
   117   116   114   ar
   118   116   118   ar
   119   114   117   ar
   120    90    88    1
   121   118   120   ar
   122    88    89    1
   123   117   119   ar
   124   120   119   ar
