@<TRIPOS>MOLECULE
tmp/1u3gA01.pdb
 130 125 0 0 0
SMALL
GASTEIGER

@<TRIPOS>ATOM
      1  N         12.6970   27.8820   11.4130 N.3    49  TYR49      -0.1227
      2  CA        13.2310   26.9680   12.4120 C.3    49  TYR49       0.1736
      3  C         14.6070   26.4760   11.9540 C.2    49  TYR49       0.2595
      4  O         14.9680   26.6240   10.7840 O.2    49  TYR49      -0.2718
      5  CB        12.2650   25.7940   12.6320 C.3    49  TYR49       0.0548
      6  CG        12.1560   24.8170   11.4870 C.ar   49  TYR49      -0.0200
      7  CD1       13.1230   23.8210   11.2950 C.ar   49  TYR49      -0.0009
      8  CD2       11.0620   24.8440   10.6200 C.ar   49  TYR49      -0.0009
      9  CE1       12.9970   22.8760   10.2770 C.ar   49  TYR49       0.0417
     10  CE2       10.9260   23.9030    9.6020 C.ar   49  TYR49       0.0417
     11  CZ        11.8950   22.9190    9.4390 C.ar   49  TYR49       0.1957
     12  OH        11.7500   21.9600    8.4550 O.3    49  TYR49      -0.2866
     13  N         15.3770   25.9130   12.8810 N.am   50  GLU50      -0.1979
     14  CA        16.7080   25.4020   12.5620 C.3    50  GLU50       0.1602
     15  C         16.6540   23.8810   12.5100 C.2    50  GLU50       0.2287
     16  O         16.7410   23.2120   13.5370 O.2    50  GLU50      -0.2864
     17  CB        17.7190   25.8890   13.6070 C.3    50  GLU50       0.0415
     18  CG        17.8950   27.4070   13.5810 C.3    50  GLU50       0.1163
     19  CD        18.7400   27.9460   14.7230 C.2    50  GLU50       0.3649
     20  OE1       18.3750   27.7240   15.8960 O.co2  50  GLU50      -0.2457
     21  OE2       19.7660   28.6050   14.4450 O.co2  50  GLU50      -0.2457
     22  N         16.7540   20.0170   12.5850 N.3    52  ILE52      -0.1245
     23  CA        17.4870   19.1750   13.5100 C.3    52  ILE52       0.1561
     24  C         17.4850   17.6960   13.0880 C.2    52  ILE52       0.2260
     25  O         18.1900   17.3280   12.1540 O.2    52  ILE52      -0.2867
     26  CB        16.9430   19.3900   14.9580 C.3    52  ILE52       0.0252
     27  CG1       17.8100   18.6300   15.9560 C.3    52  ILE52       0.0019
     28  CG2       15.4650   19.0150   15.0470 C.3    52  ILE52       0.0019
     29  CD1       19.2470   19.1230   15.9990 C.3    52  ILE52       0.0001
     30  N         15.1640   17.1390    9.5900 N.3    55  GLU55      -0.1245
     31  CA        13.9370   17.8060    9.1490 C.3    55  GLU55       0.1567
     32  C         14.1460   18.4390    7.7700 C.2    55  GLU55       0.2260
     33  O         15.2760   18.5100    7.2850 O.2    55  GLU55      -0.2867
     34  CB        13.5570   18.9000   10.1570 C.3    55  GLU55       0.0388
     35  CG        13.2840   18.3930   11.5680 C.3    55  GLU55       0.1160
     36  CD        13.2700   19.5010   12.6180 C.2    55  GLU55       0.3649
     37  OE1       12.5520   19.3520   13.6250 O.co2  55  GLU55      -0.2457
     38  OE2       13.9900   20.5080   12.4490 O.co2  55  GLU55      -0.2457
     39  N         12.6530   29.9480   16.7050 N.3    76  PRO76      -0.2116
     40  CA        12.2320   29.5270   18.0390 C.3    76  PRO76       0.1372
     41  C         13.3660   29.1730   18.9960 C.2    76  PRO76       0.2244
     42  O         14.3190   28.4870   18.6320 O.2    76  PRO76      -0.2868
     43  CB        11.3260   28.3310   17.7500 C.3    76  PRO76       0.0268
     44  CG        11.9860   27.7110   16.6000 C.3    76  PRO76       0.0207
     45  CD        12.3070   28.9160   15.7160 C.3    76  PRO76       0.0892
     46  N         13.6940   27.8250   23.1040 N.3    78  VAL78      -0.1245
     47  CA        13.0160   27.3410   24.3110 C.3    78  VAL78       0.1561
     48  C         13.5040   28.0760   25.5530 C.2    78  VAL78       0.2260
     49  O         14.6740   27.9870   25.9020 O.2    78  VAL78      -0.2867
     50  CB        13.2650   25.8350   24.5350 C.3    78  VAL78       0.0252
     51  CG1       12.3800   25.3240   25.6680 C.3    78  VAL78       0.0019
     52  CG2       13.0100   25.0680   23.2480 C.3    78  VAL78       0.0019
     53  N          8.4200   28.6500   24.5030 N.3    84  ILE84      -0.1245
     54  CA         9.4340   29.0520   23.5450 C.3    84  ILE84       0.1561
     55  C          9.1690   30.4910   23.1310 C.2    84  ILE84       0.2260
     56  O          8.0480   30.9770   23.2490 O.2    84  ILE84      -0.2867
     57  CB         9.4010   28.1770   22.2740 C.3    84  ILE84       0.0252
     58  CG1        8.0060   28.2370   21.6430 C.3    84  ILE84       0.0019
     59  CG2        9.8350   26.7510   22.6090 C.3    84  ILE84       0.0019
     60  CD1        7.9050   27.5750   20.2850 C.3    84  ILE84       0.0001
     61  N          8.2100   23.1630   11.8540 N.3   105  PRO105     -0.2102
     62  CA         8.8560   21.8590   11.6550 C.3   105  PRO105      0.1504
     63  C          8.0130   20.7710   12.3530 C.2   105  PRO105      0.2575
     64  O          7.4030   21.0140   13.4000 O.2   105  PRO105     -0.2718
     65  CB        10.2120   22.0520   12.3160 C.3   105  PRO105      0.0282
     66  CG         9.8660   22.9200   13.4770 C.3   105  PRO105      0.0208
     67  CD         8.9480   23.9520   12.8570 C.3   105  PRO105      0.0893
     68  N          7.9670   19.5770   11.7860 N.am  106  LEU106     -0.1980
     69  CA         7.1700   18.5370   12.4090 C.3   106  LEU106      0.1596
     70  C          7.6170   17.1120   12.1300 C.2   106  LEU106      0.2287
     71  O          8.3830   16.8510   11.2020 O.2   106  LEU106     -0.2864
     72  CB         5.7050   18.7110   12.0080 C.3   106  LEU106      0.0297
     73  CG         5.3590   18.7710   10.5220 C.3   106  LEU106      0.0022
     74  CD1        5.4770   17.3810    9.9070 C.3   106  LEU106      0.0001
     75  CD2        3.9390   19.2970   10.3650 C.3   106  LEU106      0.0001
     76  N         -0.7300   18.6060   13.7860 N.3   115  ARG115     -0.1245
     77  CA         0.6980   18.3360   13.8770 C.3   115  ARG115      0.1563
     78  C          1.1110   17.3330   14.9370 C.2   115  ARG115      0.2260
     79  O          0.4060   17.1050   15.9180 O.2   115  ARG115     -0.2867
     80  CB         1.4460   19.6550   14.1130 C.3   115  ARG115      0.0307
     81  CG         2.9220   19.5270   14.5010 C.3   115  ARG115      0.0489
     82  CD         3.5840   20.8970   14.5390 C.3   115  ARG115      0.2205
     83  NE         4.9860   20.8380   14.9410 N.pl3 115  ARG115     -0.0865
     84  CZ         5.4190   20.7760   16.2000 C.cat 115  ARG115      0.5346
     85  NH1        4.5650   20.7700   17.2220 N.pl3 115  ARG115      0.1354
     86  NH2        6.7240   20.7060   16.4350 N.pl3 115  ARG115      0.1354
     87  N          7.7160   16.9610   18.7500 N.3   118  PHE118     -0.1241
     88  CA         8.5360   16.1620   19.6560 C.3   118  PHE118      0.1605
     89  C          7.8520   15.7340   20.9540 C.2   118  PHE118      0.2264
     90  O          8.4330   15.0110   21.7560 O.2   118  PHE118     -0.2867
     91  CB         9.8440   16.8990   19.9600 C.3   118  PHE118      0.0534
     92  CG        10.8220   16.8770   18.8170 C.ar  118  PHE118     -0.0203
     93  CD1       11.2560   18.0530   18.2220 C.ar  118  PHE118     -0.0042
     94  CD2       11.2890   15.6660   18.3090 C.ar  118  PHE118     -0.0042
     95  CE1       12.1420   18.0230   17.1350 C.ar  118  PHE118     -0.0003
     96  CE2       12.1720   15.6310   17.2210 C.ar  118  PHE118     -0.0003
     97  CZ        12.5940   16.8130   16.6390 C.ar  118  PHE118     -0.0000
     98  N          6.7310   17.7920   23.3880 N.3   120  LYS120     -0.1245
     99  CA         6.9260   18.7500   24.4670 C.3   120  LYS120      0.1561
    100  C          5.6870   19.6250   24.6160 C.2   120  LYS120      0.2260
    101  O          5.2700   19.9380   25.7290 O.2   120  LYS120     -0.2867
    102  CB         8.1320   19.6320   24.1660 C.3   120  LYS120      0.0271
    103  CG         9.4550   18.9030   24.1590 C.3   120  LYS120      0.0035
    104  CD        10.1520   18.9830   25.5140 C.3   120  LYS120      0.0206
    105  CE         9.4980   18.1010   26.5610 C.3   120  LYS120      0.1093
    106  NZ        10.1700   18.2390   27.8910 N.3   120  LYS120     -0.1314
    107  N          5.3740   22.7650   23.0940 N.3   122  TYR122     -0.1227
    108  CA         5.6990   24.1850   22.9670 C.3   122  TYR122      0.1736
    109  C          4.9000   24.9190   21.8870 C.2   122  TYR122      0.2595
    110  O          4.3960   26.0240   22.1200 O.2   122  TYR122     -0.2718
    111  CB         7.1910   24.3550   22.6970 C.3   122  TYR122      0.0548
    112  CG         8.0820   23.8650   23.8150 C.ar  122  TYR122     -0.0200
    113  CD1        9.1960   23.0740   23.5400 C.ar  122  TYR122     -0.0009
    114  CD2        7.8420   24.2210   25.1430 C.ar  122  TYR122     -0.0009
    115  CE1       10.0470   22.6510   24.5430 C.ar  122  TYR122      0.0417
    116  CE2        8.7000   23.7990   26.1660 C.ar  122  TYR122      0.0417
    117  CZ         9.8020   23.0140   25.8520 C.ar  122  TYR122      0.1957
    118  OH        10.6720   22.5880   26.8300 O.3   122  TYR122     -0.2866
    119  N          4.7970   24.3200   20.7040 N.am  123  TYR123     -0.1976
    120  CA         4.0510   24.9450   19.6140 C.3   123  TYR123      0.1639
    121  C          2.5570   25.0250   19.8630 C.2   123  TYR123      0.2290
    122  O          1.9390   26.0420   19.5710 O.2   123  TYR123     -0.2864
    123  CB         4.2900   24.2200   18.2910 C.3   123  TYR123      0.0560
    124  CG         5.4540   24.7720   17.5180 C.ar  123  TYR123     -0.0198
    125  CD1        6.7210   24.2210   17.6430 C.ar  123  TYR123     -0.0009
    126  CD2        5.2870   25.8690   16.6700 C.ar  123  TYR123     -0.0009
    127  CE1        7.8050   24.7450   16.9370 C.ar  123  TYR123      0.0417
    128  CE2        6.3620   26.4020   15.9670 C.ar  123  TYR123      0.0417
    129  CZ         7.6180   25.8320   16.1040 C.ar  123  TYR123      0.1957
    130  OH         8.6760   26.3420   15.3960 O.3   123  TYR123     -0.2866
@<TRIPOS>BOND
     1    33    32    2
     2    32    31    1
     3    12    11    1
     4    31    30    1
     5    31    34    1
     6    11    10   ar
     7    11     9   ar
     8    10     8   ar
     9    74    73    1
    10    34    35    1
    11     9     7   ar
    12    75    73    1
    13    73    72    1
    14     8     6   ar
    15     4     3    2
    16    71    70    2
    17     7     6   ar
    18     1     2    1
    19     6     5    1
    20    35    36    1
    21    62    61    1
    22    62    65    1
    23    62    63    1
    24    68    63   am
    25    68    69    1
    26    61    67    1
    27     3     2    1
    28     3    13   am
    29    72    69    1
    30    70    69    1
    31    25    24    2
    32    65    66    1
    33    63    64    2
    34     2     5    1
    35    38    36   ar
    36    15    14    1
    37    15    16    2
    38    14    13    1
    39    14    17    1
    40    22    23    1
    41    36    37   ar
    42    67    66    1
    43    24    23    1
    44    23    26    1
    45    18    17    1
    46    18    19    1
    47    76    77    1
    48    77    80    1
    49    77    78    1
    50    80    81    1
    51    21    19   ar
    52    81    82    1
    53    82    83    1
    54    19    20   ar
    55    78    79    2
    56    83    84    2
    57    26    28    1
    58    26    27    1
    59   130   129    1
    60    45    44    1
    61    45    39    1
    62    27    29    1
    63   128   129   ar
    64   128   126   ar
    65   129   127   ar
    66    84    86    1
    67    84    85    1
    68    44    43    1
    69    97    95   ar
    70    97    96   ar
    71   126   124   ar
    72    39    40    1
    73   127   125   ar
    74    95    93   ar
    75    96    94   ar
    76   124   125   ar
    77   124   123    1
    78    43    40    1
    79    40    41    1
    80    93    92   ar
    81   123   120    1
    82    94    92   ar
    83    42    41    2
    84    87    88    1
    85    92    91    1
    86   122   121    2
    87   120   121    1
    88   120   119    1
    89    88    91    1
    90    88    89    1
    91    60    58    1
    92   119   109   am
    93    89    90    2
    94    58    57    1
    95   109   110    2
    96   109   108    1
    97    57    59    1
    98    57    54    1
    99   111   108    1
   100   111   112    1
   101   108   107    1
   102    46    47    1
   103    55    56    2
   104    55    54    1
   105    52    50    1
   106    98    99    1
   107   113   112   ar
   108   113   115   ar
   109    54    53    1
   110   112   114   ar
   111   103   102    1
   112   103   104    1
   113   102    99    1
   114    47    50    1
   115    47    48    1
   116    99   100    1
   117    50    51    1
   118   115   117   ar
   119   100   101    2
   120   114   116   ar
   121   104   105    1
   122    48    49    2
   123   117   116   ar
   124   117   118    1
   125   105   106    1
