@<TRIPOS>MOLECULE
tmp/1u3hC00.pdb
 183 177 0 0 0
SMALL
GASTEIGER

@<TRIPOS>ATOM
      1  N         18.9350   55.7690   40.9270 N.3     9  TYR9       -0.1227
      2  CA        17.9990   54.6660   41.1010 C.3     9  TYR9        0.1736
      3  C         18.4780   53.5600   42.0290 C.2     9  TYR9        0.2596
      4  O         18.9360   52.5140   41.5740 O.2     9  TYR9       -0.2718
      5  CB        17.6730   54.0780   39.7350 C.3     9  TYR9        0.0548
      6  CG        17.1710   55.1060   38.7520 C.ar    9  TYR9       -0.0200
      7  CD1       16.0240   55.8500   39.0250 C.ar    9  TYR9       -0.0009
      8  CD2       17.8160   55.3140   37.5320 C.ar    9  TYR9       -0.0009
      9  CE1       15.5210   56.7730   38.1060 C.ar    9  TYR9        0.0417
     10  CE2       17.3200   56.2400   36.6020 C.ar    9  TYR9        0.0417
     11  CZ        16.1660   56.9610   36.8970 C.ar    9  TYR9        0.1957
     12  OH        15.6180   57.8290   35.9780 O.3     9  TYR9       -0.2866
     13  N         18.3670   53.7890   43.3310 N.am   10  GLY10      -0.1957
     14  CA        18.7910   52.7750   44.2760 C.3    10  GLY10       0.1869
     15  C         19.7600   53.2410   45.3470 C.2    10  GLY10       0.2309
     16  O         20.6360   52.4860   45.7570 O.2    10  GLY10      -0.2863
     17  N         21.3160   53.5560   48.6530 N.3    12  VAL12      -0.1245
     18  CA        21.2010   52.7640   49.8720 C.3    12  VAL12       0.1561
     19  C         22.0120   53.3640   51.0230 C.2    12  VAL12       0.2260
     20  O         23.1900   53.6710   50.8590 O.2    12  VAL12      -0.2867
     21  CB        21.7090   51.3420   49.6530 C.3    12  VAL12       0.0252
     22  CG1       21.5080   50.5240   50.9230 C.3    12  VAL12       0.0019
     23  CG2       20.9980   50.7180   48.4750 C.3    12  VAL12       0.0019
     24  N         16.2430   53.5210   51.6330 N.3    23  TYR23      -0.1241
     25  CA        16.3440   53.2140   50.2130 C.3    23  TYR23       0.1605
     26  C         15.5120   54.2530   49.4640 C.2    23  TYR23       0.2264
     27  O         14.3180   54.3980   49.7300 O.2    23  TYR23      -0.2867
     28  CB        15.8040   51.8170   49.9280 C.3    23  TYR23       0.0534
     29  CG        16.1760   51.2990   48.5630 C.ar   23  TYR23      -0.0201
     30  CD1       17.4430   50.7770   48.3210 C.ar   23  TYR23      -0.0009
     31  CD2       15.2710   51.3600   47.5020 C.ar   23  TYR23      -0.0009
     32  CE1       17.8050   50.3250   47.0490 C.ar   23  TYR23       0.0417
     33  CE2       15.6210   50.9130   46.2270 C.ar   23  TYR23       0.0417
     34  CZ        16.8900   50.3970   46.0090 C.ar   23  TYR23       0.1957
     35  OH        17.2420   49.9580   44.7550 O.3    23  TYR23      -0.2866
     36  N         14.9840   56.7910   45.5390 N.3    25  PHE25      -0.1241
     37  CA        15.1540   57.0330   44.1130 C.3    25  PHE25       0.1605
     38  C         15.0650   58.5550   43.9410 C.2    25  PHE25       0.2264
     39  O         14.0760   59.1750   44.3450 O.2    25  PHE25      -0.2867
     40  CB        14.0290   56.3830   43.3070 C.3    25  PHE25       0.0534
     41  CG        14.3780   55.0350   42.7240 C.ar   25  PHE25      -0.0203
     42  CD1       15.0800   54.0890   43.4670 C.ar   25  PHE25      -0.0042
     43  CD2       13.9210   54.6820   41.4580 C.ar   25  PHE25      -0.0042
     44  CE1       15.3150   52.8070   42.9580 C.ar   25  PHE25      -0.0003
     45  CE2       14.1500   53.4060   40.9410 C.ar   25  PHE25      -0.0003
     46  CZ        14.8480   52.4650   41.6950 C.ar   25  PHE25      -0.0000
     47  N          1.6570   56.0690   36.7780 N.3    52  LEU52      -0.1231
     48  CA         2.3260   55.8100   35.5140 C.3    52  LEU52       0.1693
     49  C          3.5630   54.9260   35.5780 C.2    52  LEU52       0.2592
     50  O          3.8950   54.2590   34.6020 O.2    52  LEU52      -0.2718
     51  CB         2.6820   57.1360   34.8340 C.3    52  LEU52       0.0284
     52  CG         1.5010   57.9610   34.3110 C.3    52  LEU52       0.0019
     53  CD1        0.6380   58.4280   35.4660 C.3    52  LEU52       0.0001
     54  CD2        2.0110   59.1550   33.5390 C.3    52  LEU52       0.0001
     55  N          4.2620   54.9260   36.7050 N.am   53  ARG53      -0.1966
     56  CA         5.4510   54.0880   36.8350 C.3    53  ARG53       0.1729
     57  C          5.3810   53.3670   38.1680 C.2    53  ARG53       0.2617
     58  O          4.5300   53.6640   39.0110 O.2    53  ARG53      -0.2715
     59  CB         6.7290   54.9340   36.7660 C.3    53  ARG53       0.0348
     60  CG         6.7670   56.0350   37.7990 C.3    53  ARG53       0.0492
     61  CD         7.8220   57.0720   37.5040 C.3    53  ARG53       0.2205
     62  NE         9.1900   56.5850   37.6450 N.pl3  53  ARG53      -0.0865
     63  CZ        10.2480   57.3920   37.6600 C.cat  53  ARG53       0.5346
     64  NH1       10.0770   58.6990   37.5390 N.pl3  53  ARG53       0.1354
     65  NH2       11.4680   56.9090   37.8080 N.pl3  53  ARG53       0.1354
     66  N          6.2810   52.4190   38.3630 N.am   54  SER54      -0.1936
     67  CA         6.2890   51.6730   39.6010 C.3    54  SER54       0.2055
     68  C          7.6590   51.0800   39.8780 C.2    54  SER54       0.2643
     69  O          8.5540   51.1090   39.0310 O.2    54  SER54      -0.2714
     70  CB         5.2510   50.5540   39.5210 C.3    54  SER54       0.2130
     71  OG         5.5620   49.6650   38.4620 O.3    54  SER54      -0.2179
     72  N          7.8210   50.5560   41.0820 N.am   55  PHE55      -0.1959
     73  CA         9.0610   49.9170   41.4740 C.3    55  PHE55       0.1771
     74  C          8.6760   48.9040   42.5340 C.2    55  PHE55       0.2619
     75  O          7.9400   49.2260   43.4710 O.2    55  PHE55      -0.2715
     76  CB        10.0530   50.9290   42.0570 C.3    55  PHE55       0.0574
     77  CG        11.3360   50.3050   42.5420 C.ar   55  PHE55      -0.0200
     78  CD1       12.3190   49.9040   41.6430 C.ar   55  PHE55      -0.0042
     79  CD2       11.5510   50.0980   43.8980 C.ar   55  PHE55      -0.0042
     80  CE1       13.5000   49.3010   42.0960 C.ar   55  PHE55      -0.0003
     81  CE2       12.7250   49.4980   44.3620 C.ar   55  PHE55      -0.0003
     82  CZ        13.7000   49.1010   43.4610 C.ar   55  PHE55      -0.0000
     83  N          9.1600   47.6800   42.3620 N.am   56  ASP56      -0.1971
     84  CA         8.8980   46.5900   43.2870 C.3    56  ASP56       0.1709
     85  C          9.6840   46.8310   44.5830 C.2    56  ASP56       0.2293
     86  O         10.9050   46.7510   44.5880 O.2    56  ASP56      -0.2864
     87  CB         9.3290   45.2700   42.6380 C.3    56  ASP56       0.1436
     88  CG         8.9930   44.0580   43.4940 C.2    56  ASP56       0.3671
     89  OD1        8.8260   44.2330   44.7230 O.co2  56  ASP56      -0.2456
     90  OD2        8.9060   42.9370   42.9390 O.co2  56  ASP56      -0.2456
     91  N         12.9770   45.1990   45.6400 N.3    59  GLY59      -0.1225
     92  CA        14.2870   45.6120   45.1800 C.3    59  GLY59       0.1811
     93  C         15.0170   46.4050   46.2590 C.2    59  GLY59       0.2280
     94  O         16.2290   46.2830   46.4160 O.2    59  GLY59      -0.2866
     95  N         16.0280   43.9190   49.1920 N.3    62  GLN62      -0.1231
     96  CA        17.1350   43.0870   48.7600 C.3    62  GLN62       0.1698
     97  C         18.4350   43.8540   48.8820 C.2    62  GLN62       0.2592
     98  O         19.4310   43.3260   49.3720 O.2    62  GLN62      -0.2718
     99  CB        16.9580   42.6620   47.2970 C.3    62  GLN62       0.0381
    100  CG        18.2230   42.0480   46.6880 C.3    62  GLN62       0.0905
    101  CD        18.6250   40.7520   47.3700 C.2    62  GLN62       0.2608
    102  OE1       18.0620   39.6920   47.0910 O.2    62  GLN62      -0.2717
    103  NE2       19.5890   40.8340   48.2830 N.am   62  GLN62      -0.0878
    104  N         18.4240   45.1010   48.4270 N.am   63  ASN63      -0.1974
    105  CA        19.6270   45.9100   48.4720 C.3    63  ASN63       0.1688
    106  C         19.9130   46.5150   49.8360 C.2    63  ASN63       0.2292
    107  O         21.0660   46.8140   50.1460 O.2    63  ASN63      -0.2864
    108  CB        19.5820   46.9680   47.3650 C.3    63  ASN63       0.1181
    109  CG        19.9590   46.3870   46.0000 C.2    63  ASN63       0.2629
    110  OD1       21.1320   46.1530   45.7170 O.2    63  ASN63      -0.2716
    111  ND2       18.9650   46.1300   45.1700 N.am   63  ASN63      -0.0877
    112  N         22.0320   43.9680   51.4570 N.3    66  THR66      -0.1203
    113  CA        23.4060   44.0290   51.0000 C.3    66  THR66       0.1994
    114  C         24.0950   45.1750   51.7400 C.2    66  THR66       0.2618
    115  O         25.3040   45.1470   51.9670 O.2    66  THR66      -0.2717
    116  CB        23.4520   44.2720   49.4800 C.3    66  THR66       0.1784
    117  OG1       22.9390   43.1160   48.8030 O.3    66  THR66      -0.2211
    118  CG2       24.8650   44.5460   49.0160 C.3    66  THR66       0.0376
    119  N         23.3120   46.1810   52.1210 N.am   67  GLY67      -0.1956
    120  CA        23.8660   47.3110   52.8410 C.3    67  GLY67       0.1869
    121  C         24.2920   46.8490   54.2150 C.2    67  GLY67       0.2309
    122  O         25.3180   47.2740   54.7350 O.2    67  GLY67      -0.2863
    123  N         25.1770   43.8710   54.8910 N.3    69  HIS69      -0.1226
    124  CA        26.3220   43.0120   54.6070 C.3    69  HIS69       0.1752
    125  C         27.6060   43.8070   54.3720 C.2    69  HIS69       0.2596
    126  O         28.5900   43.6110   55.0790 O.2    69  HIS69      -0.2718
    127  CB        26.0430   42.1510   53.3760 C.3    69  HIS69       0.0759
    128  CG        27.2330   41.3760   52.9080 C.ar   69  HIS69       0.0818
    129  ND1       27.6980   40.2560   53.5640 N.ar   69  HIS69      -0.2268
    130  CD2       28.0790   41.5850   51.8710 C.ar   69  HIS69       0.1154
    131  CE1       28.7800   39.8100   52.9500 C.ar   69  HIS69       0.1986
    132  NE2       29.0330   40.5990   51.9200 N.ar   69  HIS69      -0.2212
    133  N         27.6100   44.6840   53.3670 N.am   70  ASN70      -0.1960
    134  CA        28.7990   45.4790   53.0870 C.3    70  ASN70       0.1819
    135  C         29.2040   46.2520   54.3260 C.2    70  ASN70       0.2621
    136  O         30.3890   46.3600   54.6320 O.2    70  ASN70      -0.2715
    137  CB        28.5740   46.4220   51.9070 C.3    70  ASN70       0.1195
    138  CG        28.5690   45.6900   50.5740 C.2    70  ASN70       0.2630
    139  OD1       29.3540   44.7630   50.3570 O.2    70  ASN70      -0.2716
    140  ND2       27.6940   46.1100   49.6710 N.am   70  ASN70      -0.0877
    141  N         28.2370   46.8160   55.0400 N.am   71  LEU71      -0.1977
    142  CA        28.6000   47.4890   56.2830 C.3    71  LEU71       0.1596
    143  C         28.9940   46.2900   57.1330 C.2    71  LEU71       0.2287
    144  O         28.4790   45.1980   56.9260 O.2    71  LEU71      -0.2864
    145  CB        27.4090   48.2050   56.9370 C.3    71  LEU71       0.0297
    146  CG        27.6760   48.7660   58.3460 C.3    71  LEU71       0.0022
    147  CD1       28.4940   50.0470   58.2740 C.3    71  LEU71       0.0001
    148  CD2       26.3620   49.0250   59.0670 C.3    71  LEU71       0.0001
    149  N         31.4780   44.4010   56.9840 N.3    73  VAL73      -0.1231
    150  CA        32.6600   43.9590   56.2600 C.3    73  VAL73       0.1692
    151  C         33.6060   45.1530   56.2980 C.2    73  VAL73       0.2591
    152  O         34.7870   45.0170   56.6040 O.2    73  VAL73      -0.2718
    153  CB        32.3440   43.6490   54.7800 C.3    73  VAL73       0.0266
    154  CG1       33.6320   43.5210   53.9840 C.3    73  VAL73       0.0020
    155  CG2       31.5360   42.3720   54.6790 C.3    73  VAL73       0.0020
    156  N         33.0600   46.3270   55.9910 N.am   74  LEU74      -0.1980
    157  CA        33.8260   47.5660   55.9810 C.3    74  LEU74       0.1596
    158  C         34.1090   48.0910   57.3790 C.2    74  LEU74       0.2287
    159  O         35.0920   48.7950   57.5840 O.2    74  LEU74      -0.2864
    160  CB        33.0960   48.6360   55.1660 C.3    74  LEU74       0.0297
    161  CG        33.3780   48.6710   53.6610 C.3    74  LEU74       0.0022
    162  CD1       34.8100   49.1050   53.4480 C.3    74  LEU74       0.0001
    163  CD2       33.1250   47.3120   53.0220 C.3    74  LEU74       0.0001
    164  N         34.7600   46.1690   59.7700 N.3    76  LYS76      -0.1231
    165  CA        35.8020   45.2390   60.1970 C.3    76  LYS76       0.1693
    166  C         37.1220   45.6260   59.5340 C.2    76  LYS76       0.2591
    167  O         38.1700   45.6630   60.1790 O.2    76  LYS76      -0.2718
    168  CB        35.4140   43.8140   59.7830 C.3    76  LYS76       0.0285
    169  CG        36.3490   42.7120   60.2550 C.3    76  LYS76       0.0035
    170  CD        35.8880   41.3570   59.7220 C.3    76  LYS76       0.0206
    171  CE        36.6760   40.1960   60.3280 C.3    76  LYS76       0.1093
    172  NZ        36.4380   40.0330   61.7960 N.3    76  LYS76      -0.1314
    173  N         37.0470   45.9220   58.2390 N.am   77  ARG77      -0.1980
    174  CA        38.2050   46.3050   57.4440 C.3    77  ARG77       0.1597
    175  C         38.7960   47.6510   57.8470 C.2    77  ARG77       0.2287
    176  O         40.0050   47.7850   57.9980 O.2    77  ARG77      -0.2864
    177  CB        37.8250   46.3490   55.9660 C.3    77  ARG77       0.0334
    178  CG        38.9820   46.6790   55.0480 C.3    77  ARG77       0.0492
    179  CD        38.5070   46.9660   53.6390 C.3    77  ARG77       0.2205
    180  NE        37.7700   45.8510   53.0570 N.pl3  77  ARG77      -0.0865
    181  CZ        37.2030   45.8850   51.8540 C.cat  77  ARG77       0.5346
    182  NH1       37.2900   46.9800   51.1050 N.pl3  77  ARG77       0.1354
    183  NH2       36.5450   44.8280   51.4000 N.pl3  77  ARG77       0.1354
@<TRIPOS>BOND
     1    54    52    1
     2    52    51    1
     3    52    53    1
     4    50    49    2
     5    51    48    1
     6    48    49    1
     7    48    47    1
     8    49    55   am
     9    12    11    1
    10    10    11   ar
    11    10     8   ar
    12    55    56    1
    13    59    56    1
    14    59    60    1
    15    56    57    1
    16    11     9   ar
    17    61    62    1
    18    61    60    1
    19     8     6   ar
    20    64    63    1
    21    62    63    2
    22    63    65    1
    23     9     7   ar
    24    57    66   am
    25    57    58    2
    26    66    67    1
    27    71    70    1
    28     6     7   ar
    29     6     5    1
    30    69    68    2
    31    70    67    1
    32    67    68    1
    33     5     2    1
    34    68    72   am
    35     1     2    1
    36    45    43   ar
    37    45    46   ar
    38    72    73    1
    39     2     3    1
    40    43    41   ar
    41    73    76    1
    42    73    74    1
    43     4     3    2
    44    78    80   ar
    45    78    77   ar
    46    46    44   ar
    47     3    13   am
    48    76    77    1
    49    80    82   ar
    50    83    74   am
    51    83    84    1
    52    74    75    2
    53    77    79   ar
    54    87    84    1
    55    87    88    1
    56    41    40    1
    57    41    42   ar
    58    90    88   ar
    59    44    42   ar
    60    84    85    1
    61    40    37    1
    62    13    14    1
    63    82    81   ar
    64    88    89   ar
    65    79    81   ar
    66    38    37    1
    67    38    39    2
    68    37    36    1
    69    14    15    1
    70    85    86    2
    71    35    34    1
    72   111   109   am
    73    92    91    1
    74    92    93    1
    75    15    16    2
    76   110   109    2
    77   109   108    1
    78    34    33   ar
    79    34    32   ar
    80    33    31   ar
    81    93    94    2
    82   100    99    1
    83   100   101    1
    84    32    30   ar
    85   102   101    2
    86    99    96    1
    87   108   105    1
    88   101   103   am
    89    31    29   ar
    90    30    29   ar
    91   104   105    1
    92   104    97   am
    93   105   106    1
    94    23    21    1
    95    29    28    1
    96    17    18    1
    97    96    97    1
    98    96    95    1
    99   117   116    1
   100    97    98    2
   101   118   116    1
   102    26    27    2
   103    26    25    1
   104   116   113    1
   105    21    18    1
   106    21    22    1
   107   140   138   am
   108   106   107    2
   109    18    19    1
   110    28    25    1
   111    25    24    1
   112   139   138    2
   113   138   137    1
   114    20    19    2
   115   113   112    1
   116   113   114    1
   117   182   181    1
   118   183   181    1
   119   114   115    2
   120   114   119   am
   121   181   180    2
   122   130   132   ar
   123   130   128   ar
   124   137   134    1
   125   132   131   ar
   126   119   120    1
   127   120   121    1
   128   128   127    1
   129   128   129   ar
   130   131   129   ar
   131   163   161    1
   132   180   179    1
   133   134   133    1
   134   134   135    1
   135   133   125   am
   136   127   124    1
   137   162   161    1
   138   179   178    1
   139   161   160    1
   140   154   153    1
   141   121   122    2
   142   135   136    2
   143   135   141   am
   144   125   124    1
   145   125   126    2
   146   124   123    1
   147   155   153    1
   148   153   150    1
   149   141   142    1
   150   178   177    1
   151   160   157    1
   152   177   174    1
   153   157   156    1
   154   157   158    1
   155   156   151   am
   156   150   151    1
   157   150   149    1
   158   142   145    1
   159   142   143    1
   160   151   152    2
   161   144   143    2
   162   145   146    1
   163   158   159    2
   164   174   175    1
   165   174   173    1
   166   175   176    2
   167   173   166   am
   168   147   146    1
   169   146   148    1
   170   166   167    2
   171   166   165    1
   172   170   169    1
   173   170   171    1
   174   164   165    1
   175   168   165    1
   176   168   169    1
   177   171   172    1
