@<TRIPOS>MOLECULE
tmp/1u3hI00.pdb
 217 212 0 0 0
SMALL
GASTEIGER

@<TRIPOS>ATOM
      1  N        -16.0800   37.7080   67.6730 N.3     9  VAL9       -0.1231
      2  CA       -17.2490   37.2880   68.4480 C.3     9  VAL9        0.1692
      3  C        -17.0620   37.8690   69.8460 C.2     9  VAL9        0.2592
      4  O        -15.9410   38.2150   70.2300 O.2     9  VAL9       -0.2718
      5  CB       -17.3800   35.7440   68.5610 C.3     9  VAL9        0.0266
      6  CG1      -17.7330   35.1450   67.2070 C.3     9  VAL9        0.0020
      7  CG2      -16.0900   35.1430   69.0920 C.3     9  VAL9        0.0020
      8  N        -18.1490   37.9840   70.6030 N.am   10  GLN10      -0.1966
      9  CA       -18.0710   38.5350   71.9540 C.3    10  GLN10       0.1733
     10  C        -18.9900   37.8510   72.9550 C.2    10  GLN10       0.2616
     11  O        -20.1880   37.7320   72.7140 O.2    10  GLN10      -0.2715
     12  CB       -18.4490   40.0180   71.9690 C.3    10  GLN10       0.0408
     13  CG       -17.5400   40.9710   71.2330 C.3    10  GLN10       0.0908
     14  CD       -18.0240   42.4020   71.3760 C.2    10  GLN10       0.2608
     15  OE1      -18.1710   42.9060   72.4910 O.2    10  GLN10      -0.2717
     16  NE2      -18.2800   43.0630   70.2510 N.am   10  GLN10      -0.0878
     17  N        -18.4320   37.4150   74.0820 N.am   11  PHE11      -0.1974
     18  CA       -19.2460   36.8300   75.1380 C.3    11  PHE11       0.1639
     19  C        -19.1870   37.8450   76.2850 C.2    11  PHE11       0.2290
     20  O        -18.1060   38.1700   76.7760 O.2    11  PHE11      -0.2864
     21  CB       -18.6910   35.4890   75.6130 C.3    11  PHE11       0.0560
     22  CG       -19.4620   34.9000   76.7710 C.ar   11  PHE11      -0.0200
     23  CD1      -20.7800   34.4800   76.6050 C.ar   11  PHE11      -0.0042
     24  CD2      -18.8770   34.7880   78.0270 C.ar   11  PHE11      -0.0042
     25  CE1      -21.5050   33.9550   77.6740 C.ar   11  PHE11      -0.0003
     26  CE2      -19.5930   34.2660   79.1030 C.ar   11  PHE11      -0.0003
     27  CZ       -20.9120   33.8470   78.9260 C.ar   11  PHE11      -0.0000
     28  N        -20.7960   38.4180   79.9950 N.3    13  PRO13      -0.2116
     29  CA       -21.6440   38.0410   81.1240 C.3    13  PRO13       0.1372
     30  C        -21.8140   39.2150   82.0630 C.2    13  PRO13       0.2244
     31  O        -20.8760   39.9730   82.2860 O.2    13  PRO13      -0.2868
     32  CB       -20.8640   36.9070   81.7580 C.3    13  PRO13       0.0268
     33  CG       -19.4470   37.4060   81.6200 C.3    13  PRO13       0.0207
     34  CD       -19.4100   37.9550   80.2030 C.3    13  PRO13       0.0892
     35  N        -23.6150   40.4380   85.9350 N.3    15  CYS15      -0.1235
     36  CA       -24.2250   40.0660   87.2030 C.3    15  CYS15       0.1677
     37  C        -24.6990   41.3900   87.7870 C.2    15  CYS15       0.2270
     38  O        -23.8970   42.1650   88.3050 O.2    15  CYS15      -0.2867
     39  CB       -23.2120   39.4380   88.1700 C.3    15  CYS15       0.0956
     40  SG       -22.5970   37.7450   87.8600 S.3    15  CYS15      -0.0801
     41  N        -29.0950   38.0140   86.2600 N.3    26  TYR26      -0.1241
     42  CA       -27.9490   37.4870   85.5510 C.3    26  TYR26       0.1605
     43  C        -28.1900   37.4310   84.0540 C.2    26  TYR26       0.2264
     44  O        -29.0870   36.7380   83.5930 O.2    26  TYR26      -0.2867
     45  CB       -27.6340   36.0980   86.1170 C.3    26  TYR26       0.0534
     46  CG       -26.5240   35.3560   85.4250 C.ar   26  TYR26      -0.0201
     47  CD1      -25.2780   35.9460   85.2240 C.ar   26  TYR26      -0.0009
     48  CD2      -26.7120   34.0480   84.9970 C.ar   26  TYR26      -0.0009
     49  CE1      -24.2510   35.2500   84.6150 C.ar   26  TYR26       0.0417
     50  CE2      -25.6920   33.3400   84.3880 C.ar   26  TYR26       0.0417
     51  CZ       -24.4620   33.9420   84.1990 C.ar   26  TYR26       0.1957
     52  OH       -23.4450   33.2260   83.6040 O.3    26  TYR26      -0.2866
     53  N        -24.5530   36.8830   73.7380 N.3    30  TYR30      -0.1227
     54  CA       -23.7280   36.3100   72.6810 C.3    30  TYR30       0.1736
     55  C        -23.7710   37.2830   71.5110 C.2    30  TYR30       0.2595
     56  O        -24.8270   37.5160   70.9260 O.2    30  TYR30      -0.2718
     57  CB       -24.2500   34.9240   72.2780 C.3    30  TYR30       0.0548
     58  CG       -24.0060   33.8680   73.3420 C.ar   30  TYR30      -0.0200
     59  CD1      -24.6220   33.9550   74.5920 C.ar   30  TYR30      -0.0009
     60  CD2      -23.1080   32.8160   73.1280 C.ar   30  TYR30      -0.0009
     61  CE1      -24.3500   33.0320   75.5980 C.ar   30  TYR30       0.0417
     62  CE2      -22.8280   31.8840   74.1420 C.ar   30  TYR30       0.0417
     63  CZ       -23.4590   32.0080   75.3760 C.ar   30  TYR30       0.1957
     64  OH       -23.1970   31.1270   76.4030 O.3    30  TYR30      -0.2866
     65  N        -22.6180   37.8680   71.1990 N.am   31  ILE31      -0.1980
     66  CA       -22.4930   38.8500   70.1270 C.3    31  ILE31       0.1595
     67  C        -21.6730   38.2860   68.9680 C.2    31  ILE31       0.2287
     68  O        -20.6790   37.5950   69.2030 O.2    31  ILE31      -0.2864
     69  CB       -21.7830   40.1440   70.6440 C.3    31  ILE31       0.0276
     70  CG1      -22.6900   40.9000   71.6150 C.3    31  ILE31       0.0022
     71  CG2      -21.4010   41.0550   69.4750 C.3    31  ILE31       0.0022
     72  CD1      -22.7940   40.2740   72.9790 C.3    31  ILE31       0.0001
     73  N        -26.7500   38.2260   69.0940 N.3    37  TYR37      -0.1241
     74  CA       -27.6370   37.2740   68.4300 C.3    37  TYR37       0.1605
     75  C        -28.3410   36.2860   69.3510 C.2    37  TYR37       0.2264
     76  O        -29.4220   35.8010   69.0290 O.2    37  TYR37      -0.2867
     77  CB       -26.8640   36.5140   67.3530 C.3    37  TYR37       0.0534
     78  CG       -25.7510   35.6470   67.8890 C.ar   37  TYR37      -0.0201
     79  CD1      -26.0310   34.4460   68.5410 C.ar   37  TYR37      -0.0009
     80  CD2      -24.4140   36.0250   67.7470 C.ar   37  TYR37      -0.0009
     81  CE1      -25.0110   33.6410   69.0400 C.ar   37  TYR37       0.0417
     82  CE2      -23.3830   35.2230   68.2440 C.ar   37  TYR37       0.0417
     83  CZ       -23.6910   34.0320   68.8890 C.ar   37  TYR37       0.1957
     84  OH       -22.6910   33.2260   69.3840 O.3    37  TYR37      -0.2866
     85  N        -32.6520   30.9090   77.3630 N.3    47  TYR47      -0.1241
     86  CA       -31.9600   31.4290   76.1890 C.3    47  TYR47       0.1605
     87  C        -32.9600   31.7590   75.0860 C.2    47  TYR47       0.2264
     88  O        -33.7120   30.8950   74.6370 O.2    47  TYR47      -0.2867
     89  CB       -30.9770   30.3980   75.6400 C.3    47  TYR47       0.0534
     90  CG       -29.7050   30.2440   76.4230 C.ar   47  TYR47      -0.0201
     91  CD1      -28.7350   31.2390   76.4060 C.ar   47  TYR47      -0.0009
     92  CD2      -29.4450   29.0830   77.1460 C.ar   47  TYR47      -0.0009
     93  CE1      -27.5310   31.0820   77.0850 C.ar   47  TYR47       0.0417
     94  CE2      -28.2440   28.9140   77.8290 C.ar   47  TYR47       0.0417
     95  CZ       -27.2900   29.9190   77.7920 C.ar   47  TYR47       0.1957
     96  OH       -26.0910   29.7630   78.4420 O.3    47  TYR47      -0.2866
     97  N        -29.5240   28.4240   67.6070 N.3    57  ASP57      -0.1239
     98  CA       -28.9650   28.0720   68.9120 C.3    57  ASP57       0.1674
     99  C        -29.9690   27.9750   70.0580 C.2    57  ASP57       0.2266
    100  O        -29.7780   27.1920   70.9860 O.2    57  ASP57      -0.2867
    101  CB       -27.8630   29.0730   69.3020 C.3    57  ASP57       0.1410
    102  CG       -26.6250   28.9690   68.4180 C.2    57  ASP57       0.3668
    103  OD1      -26.1220   27.8410   68.2170 O.co2  57  ASP57      -0.2456
    104  OD2      -26.1450   30.0180   67.9370 O.co2  57  ASP57      -0.2456
    105  N        -31.1420   24.2000   71.0710 N.3    60  TYR60      -0.1227
    106  CA       -29.9440   23.4880   71.5210 C.3    60  TYR60       0.1736
    107  C        -29.3860   23.9910   72.8530 C.2    60  TYR60       0.2595
    108  O        -29.0500   23.1880   73.7240 O.2    60  TYR60      -0.2718
    109  CB       -28.8390   23.5610   70.4570 C.3    60  TYR60       0.0548
    110  CG       -27.6470   22.6820   70.7750 C.ar   60  TYR60      -0.0200
    111  CD1      -27.7520   21.2940   70.7290 C.ar   60  TYR60      -0.0009
    112  CD2      -26.4300   23.2350   71.1780 C.ar   60  TYR60      -0.0009
    113  CE1      -26.6810   20.4730   71.0810 C.ar   60  TYR60       0.0417
    114  CE2      -25.3480   22.4220   71.5350 C.ar   60  TYR60       0.0417
    115  CZ       -25.4840   21.0410   71.4860 C.ar   60  TYR60       0.1957
    116  OH       -24.4380   20.2250   71.8620 O.3    60  TYR60      -0.2866
    117  N        -29.2790   25.3130   73.0070 N.am   61  TYR61      -0.1976
    118  CA       -28.7580   25.9060   74.2420 C.3    61  TYR61       0.1639
    119  C        -29.6770   25.6520   75.4230 C.2    61  TYR61       0.2290
    120  O        -29.2200   25.4730   76.5530 O.2    61  TYR61      -0.2864
    121  CB       -28.5490   27.4180   74.0890 C.3    61  TYR61       0.0560
    122  CG       -27.2160   27.7960   73.4880 C.ar   61  TYR61      -0.0198
    123  CD1      -26.8840   27.4180   72.1920 C.ar   61  TYR61      -0.0009
    124  CD2      -26.2880   28.5440   74.2130 C.ar   61  TYR61      -0.0009
    125  CE1      -25.6640   27.7750   71.6270 C.ar   61  TYR61       0.0417
    126  CE2      -25.0620   28.9080   73.6560 C.ar   61  TYR61       0.0417
    127  CZ       -24.7590   28.5210   72.3610 C.ar   61  TYR61       0.1957
    128  OH       -23.5650   28.8920   71.7810 O.3    61  TYR61      -0.2866
    129  N        -27.6600   23.5080   78.0180 N.3    65  TYR65      -0.1241
    130  CA       -27.1530   24.4190   79.0310 C.3    65  TYR65       0.1605
    131  C        -28.1030   25.0410   80.0470 C.2    65  TYR65       0.2264
    132  O        -27.6710   25.4260   81.1340 O.2    65  TYR65      -0.2867
    133  CB       -26.3830   25.5310   78.3200 C.3    65  TYR65       0.0534
    134  CG       -25.4520   25.0330   77.2190 C.ar   65  TYR65      -0.0201
    135  CD1      -24.4440   24.0980   77.4870 C.ar   65  TYR65      -0.0009
    136  CD2      -25.5550   25.5280   75.9130 C.ar   65  TYR65      -0.0009
    137  CE1      -23.5570   23.6740   76.4730 C.ar   65  TYR65       0.0417
    138  CE2      -24.6720   25.1120   74.9000 C.ar   65  TYR65       0.0417
    139  CZ       -23.6820   24.1940   75.1860 C.ar   65  TYR65       0.1957
    140  OH       -22.8000   23.8210   74.1960 O.3    65  TYR65      -0.2866
    141  N        -27.4770   24.5950   83.7520 N.3    68  ARG68      -0.1231
    142  CA       -26.1890   25.1060   84.2060 C.3    68  ARG68       0.1694
    143  C        -26.1490   26.6330   84.3130 C.2    68  ARG68       0.2592
    144  O        -25.7790   27.1830   85.3540 O.2    68  ARG68      -0.2718
    145  CB       -25.0780   24.6260   83.2720 C.3    68  ARG68       0.0321
    146  CG       -24.9540   23.1150   83.2020 C.3    68  ARG68       0.0489
    147  CD       -23.5470   22.6580   83.5580 C.3    68  ARG68       0.2205
    148  NE       -23.4650   21.2070   83.7150 N.pl3  68  ARG68      -0.0865
    149  CZ       -23.6680   20.3320   82.7350 C.cat  68  ARG68       0.5346
    150  NH1      -23.9680   20.7470   81.5080 N.pl3  68  ARG68       0.1354
    151  NH2      -23.5750   19.0340   82.9860 N.pl3  68  ARG68       0.1354
    152  N        -26.5340   27.3160   83.2400 N.am   69  THR69      -0.1953
    153  CA       -26.5190   28.7730   83.2280 C.3    69  THR69       0.1897
    154  C        -27.3450   29.3630   84.3550 C.2    69  THR69       0.2313
    155  O        -26.9110   30.3020   85.0190 O.2    69  THR69      -0.2863
    156  CB       -27.0380   29.3290   81.8970 C.3    69  THR69       0.1794
    157  OG1      -26.2300   28.8270   80.8260 O.3    69  THR69      -0.2208
    158  CG2      -26.9740   30.8480   81.9000 C.3    69  THR69       0.0378
    159  N        -25.3790   29.3810   87.6800 N.3    72  GLU72      -0.1245
    160  CA       -24.2970   30.3410   87.8130 C.3    72  GLU72       0.1567
    161  C        -24.7490   31.5970   88.5410 C.2    72  GLU72       0.2260
    162  O        -23.9370   32.2580   89.1860 O.2    72  GLU72      -0.2867
    163  CB       -23.7370   30.7160   86.4340 C.3    72  GLU72       0.0388
    164  CG       -23.0440   29.5760   85.7000 C.3    72  GLU72       0.1160
    165  CD       -22.5170   29.9860   84.3340 C.2    72  GLU72       0.3649
    166  OE1      -23.3090   30.5320   83.5310 O.co2  72  GLU72      -0.2457
    167  OE2      -21.3150   29.7510   84.0620 O.co2  72  GLU72      -0.2457
    168  N        -23.7000   30.1210   91.7730 N.3    75  THR75      -0.1203
    169  CA       -22.3140   29.6530   91.8510 C.3    75  THR75       0.1994
    170  C        -21.2840   30.6490   91.3020 C.2    75  THR75       0.2617
    171  O        -20.0840   30.5020   91.5320 O.2    75  THR75      -0.2717
    172  CB       -22.1220   28.2940   91.1280 C.3    75  THR75       0.1784
    173  OG1      -22.1100   28.4950   89.7100 O.3    75  THR75      -0.2211
    174  CG2      -23.2440   27.3390   91.4880 C.3    75  THR75       0.0376
    175  N        -21.7450   31.6580   90.5720 N.am   76  VAL76      -0.1979
    176  CA       -20.8330   32.6580   90.0400 C.3    76  VAL76       0.1595
    177  C        -21.1340   34.0350   90.6120 C.2    76  VAL76       0.2287
    178  O        -20.3340   34.5800   91.3620 O.2    76  VAL76      -0.2864
    179  CB       -20.8870   32.7290   88.5010 C.3    76  VAL76       0.0276
    180  CG1      -19.9930   33.8580   88.0020 C.3    76  VAL76       0.0022
    181  CG2      -20.4190   31.4130   87.9070 C.3    76  VAL76       0.0022
    182  N        -21.8380   34.0490   94.4910 N.3    79  TYR79      -0.1227
    183  CA       -20.5780   33.5590   95.0350 C.3    79  TYR79       0.1736
    184  C        -19.4290   34.5640   94.9350 C.2    79  TYR79       0.2595
    185  O        -18.7760   34.8750   95.9360 O.2    79  TYR79      -0.2718
    186  CB       -20.1520   32.2690   94.3350 C.3    79  TYR79       0.0548
    187  CG       -18.8380   31.7430   94.8550 C.ar   79  TYR79      -0.0200
    188  CD1      -18.7810   31.0030   96.0290 C.ar   79  TYR79      -0.0009
    189  CD2      -17.6460   32.0150   94.1920 C.ar   79  TYR79      -0.0009
    190  CE1      -17.5710   30.5410   96.5300 C.ar   79  TYR79       0.0417
    191  CE2      -16.4290   31.5620   94.6850 C.ar   79  TYR79       0.0417
    192  CZ       -16.3980   30.8230   95.8540 C.ar   79  TYR79       0.1957
    193  OH       -15.1990   30.3550   96.3410 O.3    79  TYR79      -0.2866
    194  N        -19.1690   35.0450   93.7210 N.am   80  ASN80      -0.1974
    195  CA       -18.0980   36.0060   93.4880 C.3    80  ASN80       0.1688
    196  C        -18.3010   37.2450   94.3380 C.2    80  ASN80       0.2292
    197  O        -17.3500   37.8140   94.8640 O.2    80  ASN80      -0.2864
    198  CB       -18.0400   36.4030   92.0050 C.3    80  ASN80       0.1181
    199  CG       -17.2790   35.3980   91.1520 C.2    80  ASN80       0.2629
    200  OD1      -16.7670   34.3900   91.6480 O.2    80  ASN80      -0.2716
    201  ND2      -17.1920   35.6770   89.8610 N.am   80  ASN80      -0.0877
    202  N        -17.9340   36.2530   98.1910 N.3    83  GLU83      -0.1231
    203  CA       -16.6070   35.6720   98.3790 C.3    83  GLU83       0.1699
    204  C        -15.3950   36.4970   97.9420 C.2    83  GLU83       0.2592
    205  O        -14.3760   36.5140   98.6320 O.2    83  GLU83      -0.2718
    206  CB       -16.5520   34.3050   97.6910 C.3    83  GLU83       0.0402
    207  CG       -16.3910   33.1470   98.6530 C.3    83  GLU83       0.1161
    208  CD       -17.3470   33.2360   99.8240 C.2    83  GLU83       0.3649
    209  OE1      -18.5750   33.1850   99.6010 O.co2  83  GLU83      -0.2457
    210  OE2      -16.8650   33.3620  100.9690 O.co2  83  GLU83      -0.2457
    211  N        -15.4920   37.1900   96.8130 N.am   84  THR84      -0.1953
    212  CA       -14.3400   37.9400   96.3350 C.3    84  THR84       0.1897
    213  C        -14.4650   39.4580   96.3010 C.2    84  THR84       0.2313
    214  O        -13.4720   40.1550   96.4820 O.2    84  THR84      -0.2863
    215  CB       -13.9300   37.4360   94.9470 C.3    84  THR84       0.1794
    216  OG1      -14.9600   37.7380   94.0000 O.3    84  THR84      -0.2208
    217  CG2      -13.7310   35.9250   94.9850 C.3    84  THR84       0.0378
@<TRIPOS>BOND
     1     6     5    1
     2    77    78    1
     3    77    74    1
     4    97    98    1
     5     1     2    1
     6    80    78   ar
     7    80    82   ar
     8    78    79   ar
     9   104   102   ar
    10   103   102   ar
    11    82    83   ar
    12   102   101    1
    13    74    73    1
    14    74    75    1
    15     2     5    1
    16     2     3    1
    17    79    81   ar
    18     5     7    1
    19    83    81   ar
    20    83    84    1
    21    98   101    1
    22    98    99    1
    23    67    68    2
    24    67    66    1
    25    76    75    2
    26    71    69    1
    27     3     4    2
    28     3     8   am
    29    99   100    2
    30    66    69    1
    31    66    65    1
    32    16    14   am
    33   109   110    1
    34   109   106    1
    35     8     9    1
    36    69    70    1
    37   111   110   ar
    38   111   113   ar
    39   110   112   ar
    40    56    55    2
    41   105   106    1
    42   113   115   ar
    43   112   114   ar
    44    65    55   am
    45    13    14    1
    46    13    12    1
    47    14    15    2
    48   115   114   ar
    49   115   116    1
    50    55    54    1
    51   106   107    1
    52    70    72    1
    53   125   123   ar
    54   125   127   ar
    55   128   127    1
    56     9    12    1
    57     9    10    1
    58   123   122   ar
    59    57    54    1
    60    57    58    1
    61   127   126   ar
    62    54    53    1
    63    11    10    2
    64   107   117   am
    65   107   108    2
    66    10    17   am
    67   117   118    1
    68    60    58   ar
    69    60    62   ar
    70    58    59   ar
    71   122   121    1
    72   122   124   ar
    73   126   124   ar
    74    17    18    1
    75   121   118    1
    76    62    63   ar
    77   140   139    1
    78   118   119    1
    79    59    61   ar
    80    88    87    2
    81   138   139   ar
    82   138   136   ar
    83    87    86    1
    84    18    21    1
    85    18    19    1
    86   139   137   ar
    87    63    61   ar
    88    63    64    1
    89   119   120    2
    90    21    22    1
    91    89    86    1
    92    89    90    1
    93   136   134   ar
    94    86    85    1
    95    19    20    2
    96    91    90   ar
    97    91    93   ar
    98    90    92   ar
    99   137   135   ar
   100    23    22   ar
   101    23    25   ar
   102    22    24   ar
   103    93    95   ar
   104    92    94   ar
   105   134   135   ar
   106   134   133    1
   107    25    27   ar
   108    95    94   ar
   109    95    96    1
   110   129   130    1
   111    24    26   ar
   112   133   130    1
   113    27    26   ar
   114   130   131    1
   115    28    34    1
   116    28    29    1
   117   131   132    2
   118    34    33    1
   119   157   156    1
   120    29    32    1
   121    29    30    1
   122   150   149    1
   123    33    32    1
   124   156   158    1
   125   156   153    1
   126    30    31    2
   127   149   151    1
   128   149   148    2
   129   146   145    1
   130   146   147    1
   131   153   152    1
   132   153   154    1
   133   152   143   am
   134   145   142    1
   135   166   165   ar
   136   147   148    1
   137    44    43    2
   138    52    51    1
   139   141   142    1
   140    43    42    1
   141   167   165   ar
   142    51    50   ar
   143    51    49   ar
   144   142   143    1
   145   143   144    2
   146   165   164    1
   147   154   155    2
   148    50    48   ar
   149    49    47   ar
   150    48    46   ar
   151    47    46   ar
   152    46    45    1
   153    42    45    1
   154    42    41    1
   155   164   163    1
   156    35    36    1
   157   163   160    1
   158    36    37    1
   159    36    39    1
   160   159   160    1
   161    37    38    2
   162   160   161    1
   163    40    39    1
   164   181   179    1
   165   180   179    1
   166   179   176    1
   167   161   162    2
   168   173   172    1
   169   201   199   am
   170   176   175    1
   171   176   177    1
   172   175   170   am
   173   177   178    2
   174   172   174    1
   175   172   169    1
   176   199   200    2
   177   199   198    1
   178   170   171    2
   179   170   169    1
   180   168   169    1
   181   198   195    1
   182   195   194    1
   183   195   196    1
   184   194   184   am
   185   216   215    1
   186   189   191   ar
   187   189   187   ar
   188   186   187    1
   189   186   183    1
   190   196   197    2
   191   182   183    1
   192   191   192   ar
   193   187   188   ar
   194   184   183    1
   195   184   185    2
   196   215   217    1
   197   215   212    1
   198   192   193    1
   199   192   190   ar
   200   188   190   ar
   201   213   212    1
   202   213   214    2
   203   212   211    1
   204   211   204   am
   205   206   203    1
   206   206   207    1
   207   204   203    1
   208   204   205    2
   209   202   203    1
   210   207   208    1
   211   209   208   ar
   212   208   210   ar
