@<TRIPOS>MOLECULE
tmp/1u3qD00.pdb
 156 145 0 0 0
SMALL
GASTEIGER

@<TRIPOS>ATOM
      1  N        -12.8240    8.5240    9.3590 N.3    33  MET33      -0.1245
      2  CA       -12.8480    9.9780    9.3600 C.3    33  MET33       0.1570
      3  C        -14.2870   10.4630    9.2950 C.2    33  MET33       0.2261
      4  O        -14.6570   11.4570    9.9360 O.2    33  MET33      -0.2867
      5  CB       -12.0600   10.5230    8.1670 C.3    33  MET33       0.0387
      6  CG       -10.5740   10.6090    8.4240 C.3    33  MET33       0.0595
      7  SD       -10.1970   11.8330    9.7000 S.3    33  MET33      -0.1393
      8  CE       -10.0110   10.8190   11.0820 C.3    33  MET33       0.0692
      9  N        -15.8100   10.0170   12.7240 N.3    36  LEU36      -0.1231
     10  CA       -15.4090   11.0540   13.6520 C.3    36  LEU36       0.1693
     11  C        -16.0820   12.4070   13.3680 C.2    36  LEU36       0.2592
     12  O        -16.5610   13.0610   14.2960 O.2    36  LEU36      -0.2718
     13  CB       -13.8780   11.1720   13.6510 C.3    36  LEU36       0.0284
     14  CG       -13.1590    9.9100   14.1660 C.3    36  LEU36       0.0019
     15  CD1      -11.6460   10.0330   13.9740 C.3    36  LEU36       0.0001
     16  CD2      -13.4960    9.7000   15.6520 C.3    36  LEU36       0.0001
     17  N        -16.1490   12.8240   12.1040 N.am   37  THR37      -0.1953
     18  CA       -16.7690   14.1130   11.7840 C.3    37  THR37       0.1897
     19  C        -18.2650   14.1050   12.0730 C.2    37  THR37       0.2313
     20  O        -18.8260   15.0870   12.5430 O.2    37  THR37      -0.2863
     21  CB       -16.5490   14.5250   10.2950 C.3    37  THR37       0.1794
     22  OG1      -17.1580   13.5660    9.4200 O.3    37  THR37      -0.2208
     23  CG2      -15.0680   14.6310    9.9870 C.3    37  THR37       0.0378
     24  N        -19.7560   12.4810   14.3480 N.3    39  LEU39      -0.1231
     25  CA       -19.8650   12.5720   15.8010 C.3    39  LEU39       0.1693
     26  C        -19.6290   14.0150   16.2650 C.2    39  LEU39       0.2591
     27  O        -20.4070   14.5620   17.0490 O.2    39  LEU39      -0.2718
     28  CB       -18.8400   11.6250   16.4450 C.3    39  LEU39       0.0284
     29  CG       -18.4850   11.7890   17.9250 C.3    39  LEU39       0.0019
     30  CD1      -19.6770   11.4770   18.8280 C.3    39  LEU39       0.0001
     31  CD2      -17.3180   10.8600   18.2300 C.3    39  LEU39       0.0001
     32  N        -18.5590   14.6290   15.7670 N.am   40  ALA40      -0.1980
     33  CA       -18.2390   16.0140   16.1100 C.3    40  ALA40       0.1597
     34  C        -19.3680   16.9720   15.7320 C.2    40  ALA40       0.2287
     35  O        -19.7430   17.8280   16.5350 O.2    40  ALA40      -0.2864
     36  CB       -16.9370   16.4470   15.4210 C.3    40  ALA40       0.0319
     37  N        -22.3350   16.5260   18.0540 N.3    43  GLU43      -0.1245
     38  CA       -21.9190   17.0310   19.3560 C.3    43  GLU43       0.1567
     39  C        -21.8460   18.5370   19.3630 C.2    43  GLU43       0.2260
     40  O        -22.2740   19.1650   20.3220 O.2    43  GLU43      -0.2867
     41  CB       -20.5540   16.4840   19.7460 C.3    43  GLU43       0.0388
     42  CG       -20.5430   14.9930   19.9690 C.3    43  GLU43       0.1160
     43  CD       -19.3260   14.5400   20.7330 C.2    43  GLU43       0.3649
     44  OE1      -19.4190   14.4220   21.9720 O.co2  43  GLU43      -0.2457
     45  OE2      -18.2750   14.3140   20.1010 O.co2  43  GLU43      -0.2457
     46  N        -13.0090   22.0700   19.9770 N.3    74  MET74      -0.1245
     47  CA       -12.3120   20.7900   19.9680 C.3    74  MET74       0.1570
     48  C        -11.7980   20.3950   21.3590 C.2    74  MET74       0.2261
     49  O        -11.8820   19.2250   21.7260 O.2    74  MET74      -0.2867
     50  CB       -11.1690   20.8120   18.9520 C.3    74  MET74       0.0387
     51  CG       -10.4420   19.4900   18.8090 C.3    74  MET74       0.0595
     52  SD       -11.4660   18.0940   18.2410 S.3    74  MET74      -0.1393
     53  CE       -10.9180   18.0140   16.4930 C.3    74  MET74       0.0692
     54  N        -14.4950   18.9810   23.1720 N.3    77  LEU77      -0.1231
     55  CA       -14.7820   17.6370   22.6860 C.3    77  LEU77       0.1693
     56  C        -13.8290   16.5990   23.2710 C.2    77  LEU77       0.2591
     57  O        -14.2540   15.5590   23.7510 O.2    77  LEU77      -0.2718
     58  CB       -14.6750   17.5630   21.1580 C.3    77  LEU77       0.0284
     59  CG       -15.7720   18.2260   20.3240 C.3    77  LEU77       0.0019
     60  CD1      -15.5390   17.8900   18.8490 C.3    77  LEU77       0.0001
     61  CD2      -17.1510   17.7560   20.7960 C.3    77  LEU77       0.0001
     62  N        -12.5370   16.8820   23.2020 N.am   78  MET78      -0.1979
     63  CA       -11.5380   15.9670   23.7050 C.3    78  MET78       0.1605
     64  C        -11.6420   15.7760   25.2050 C.2    78  MET78       0.2287
     65  O        -11.4180   14.6770   25.7020 O.2    78  MET78      -0.2864
     66  CB       -10.1620   16.4520   23.2880 C.3    78  MET78       0.0413
     67  CG       -10.0070   16.4270   21.7870 C.3    78  MET78       0.0598
     68  SD        -8.4550   17.1010   21.2860 S.3    78  MET78      -0.1393
     69  CE        -8.1570   16.2860   19.7450 C.3    78  MET78       0.0692
     70  N        -14.1320   13.3830   25.5390 N.3    81  LEU81      -0.1245
     71  CA       -13.5830   12.0810   25.1650 C.3    81  LEU81       0.1561
     72  C        -12.8470   11.3950   26.3080 C.2    81  LEU81       0.2260
     73  O        -13.0400   10.2110   26.5730 O.2    81  LEU81      -0.2867
     74  CB       -12.6130   12.2350   23.9830 C.3    81  LEU81       0.0270
     75  CG       -11.6720   11.0410   23.7530 C.3    81  LEU81       0.0019
     76  CD1      -12.5120    9.7880   23.4780 C.3    81  LEU81       0.0001
     77  CD2      -10.7320   11.3230   22.5910 C.3    81  LEU81       0.0001
     78  N        -15.0560   10.0900   29.1570 N.3    84  ARG84      -0.1245
     79  CA       -15.6920    8.8310   28.7550 C.3    84  ARG84       0.1563
     80  C        -14.7120    7.6570   28.6940 C.2    84  ARG84       0.2260
     81  O        -15.1190    6.5060   28.8180 O.2    84  ARG84      -0.2867
     82  CB       -16.3760    8.9630   27.3740 C.3    84  ARG84       0.0307
     83  CG       -17.5230    9.9710   27.2950 C.3    84  ARG84       0.0489
     84  CD       -18.3220    9.8610   25.9720 C.3    84  ARG84       0.2205
     85  NE       -17.5770   10.2370   24.7650 N.pl3  84  ARG84      -0.0865
     86  CZ       -17.3640   11.4900   24.3650 C.cat  84  ARG84       0.5346
     87  NH1      -17.8420   12.5030   25.0740 N.pl3  84  ARG84       0.1354
     88  NH2      -16.6640   11.7300   23.2530 N.pl3  84  ARG84       0.1354
     89  N        -14.8500    7.3170   21.8700 N.3    94  PHE94      -0.1241
     90  CA       -15.5110    8.3900   21.1330 C.3    94  PHE94       0.1605
     91  C        -17.0130    8.2870   21.3240 C.2    94  PHE94       0.2264
     92  O        -17.6960    9.2910   21.4880 O.2    94  PHE94      -0.2867
     93  CB       -15.1530    8.3250   19.6560 C.3    94  PHE94       0.0534
     94  CG       -13.7350    8.7040   19.3850 C.ar   94  PHE94      -0.0203
     95  CD1      -12.7220    7.7540   19.4550 C.ar   94  PHE94      -0.0042
     96  CD2      -13.4020   10.0210   19.1030 C.ar   94  PHE94      -0.0042
     97  CE1      -11.4020    8.1060   19.2490 C.ar   94  PHE94      -0.0003
     98  CE2      -12.0740   10.3900   18.8920 C.ar   94  PHE94      -0.0003
     99  CZ       -11.0740    9.4260   18.9670 C.ar   94  PHE94      -0.0000
    100  N         -3.2430   10.1310   12.2990 N.3   111  ILE111     -0.1245
    101  CA        -4.1360   10.2110   13.4430 C.3   111  ILE111      0.1561
    102  C         -3.6140    9.3920   14.6240 C.2   111  ILE111      0.2260
    103  O         -4.0240    9.6030   15.7600 O.2   111  ILE111     -0.2867
    104  CB        -5.5840    9.7610   13.0720 C.3   111  ILE111      0.0252
    105  CG1       -6.5940   10.6640   13.7920 C.3   111  ILE111      0.0019
    106  CG2       -5.8110    8.2890   13.4480 C.3   111  ILE111      0.0019
    107  CD1       -8.0440   10.2520   13.6250 C.3   111  ILE111      0.0001
    108  N         -2.1150   11.5350   17.3450 N.3   114  ILE114     -0.1231
    109  CA        -3.1240   12.2130   18.1370 C.3   114  ILE114      0.1692
    110  C         -3.7840   11.2610   19.1250 C.2   114  ILE114      0.2592
    111  O         -4.1050   11.6420   20.2510 O.2   114  ILE114     -0.2718
    112  CB        -4.2020   12.8360   17.2260 C.3   114  ILE114      0.0266
    113  CG1       -3.5260   13.7410   16.1920 C.3   114  ILE114      0.0019
    114  CG2       -5.1920   13.6310   18.0580 C.3   114  ILE114      0.0020
    115  CD1       -4.4730   14.5510   15.3450 C.3   114  ILE114      0.0001
    116  N         -3.9810   10.0180   18.6980 N.am  115  PHE115     -0.1976
    117  CA        -4.6010    9.0150   19.5560 C.3   115  PHE115      0.1639
    118  C         -3.7380    8.8000   20.7870 C.2   115  PHE115      0.2290
    119  O         -4.2490    8.7960   21.9100 O.2   115  PHE115     -0.2864
    120  CB        -4.7620    7.6810   18.8160 C.3   115  PHE115      0.0560
    121  CG        -6.0380    7.5550   18.0360 C.ar  115  PHE115     -0.0200
    122  CD1       -6.8300    8.6710   17.7650 C.ar  115  PHE115     -0.0042
    123  CD2       -6.4340    6.3150   17.5360 C.ar  115  PHE115     -0.0042
    124  CE1       -8.0090    8.5510   16.9960 C.ar  115  PHE115     -0.0003
    125  CE2       -7.5990    6.1840   16.7730 C.ar  115  PHE115     -0.0003
    126  CZ        -8.3880    7.3020   16.5010 C.ar  115  PHE115     -0.0000
    127  N         -4.1310   11.7010   23.1760 N.3   118  LEU118     -0.1245
    128  CA        -5.4020   11.6330   23.8820 C.3   118  LEU118      0.1561
    129  C         -5.3600   10.5640   24.9720 C.2   118  LEU118      0.2260
    130  O         -5.8900   10.7670   26.0620 O.2   118  LEU118     -0.2867
    131  CB        -6.5330   11.3490   22.8940 C.3   118  LEU118      0.0270
    132  CG        -6.7420   12.4550   21.8600 C.3   118  LEU118      0.0019
    133  CD1       -7.6340   11.9570   20.7310 C.3   118  LEU118      0.0001
    134  CD2       -7.3370   13.6720   22.5470 C.3   118  LEU118      0.0001
    135  N         -5.3320   18.0920   16.6730 N.3   201  GLY201     -0.1225
    136  CA        -6.5560   17.5280   16.1470 C.3   201  GLY201      0.1811
    137  C         -7.1730   18.3660   15.0410 C.2   201  GLY201      0.2280
    138  O         -7.6320   17.8340   14.0350 O.2   201  GLY201     -0.2866
    139  N         -5.0450   18.3320   11.9230 N.3   204  HIS204     -0.1226
    140  CA        -5.2510   17.0800   11.2210 C.3   204  HIS204      0.1752
    141  C         -6.5490   17.0600   10.4230 C.2   204  HIS204      0.2595
    142  O         -6.5460   16.6990    9.2460 O.2   204  HIS204     -0.2718
    143  CB        -5.2330   15.9240   12.2160 C.3   204  HIS204      0.0759
    144  CG        -5.2340   14.5750   11.5720 C.ar  204  HIS204      0.0818
    145  ND1       -6.3820   13.8410   11.3870 N.ar  204  HIS204     -0.2268
    146  CD2       -4.2300   13.8460   11.0340 C.ar  204  HIS204      0.1154
    147  CE1       -6.0870   12.7170   10.7600 C.ar  204  HIS204      0.1986
    148  NE2       -4.7860   12.6960   10.5350 N.ar  204  HIS204     -0.2212
    149  N         -7.6530   17.4490   11.0580 N.am  205  LEU205     -0.1980
    150  CA        -8.9500   17.4590   10.3840 C.3   205  LEU205      0.1596
    151  C         -8.8830   18.3380    9.1300 C.2   205  LEU205      0.2287
    152  O         -9.2730   17.9050    8.0450 O.2   205  LEU205     -0.2864
    153  CB       -10.0450   17.9590   11.3340 C.3   205  LEU205      0.0297
    154  CG       -11.4930   17.9310   10.8250 C.3   205  LEU205      0.0022
    155  CD1      -11.8930   16.5000   10.5500 C.3   205  LEU205      0.0001
    156  CD2      -12.4350   18.5470   11.8520 C.3   205  LEU205      0.0001
@<TRIPOS>BOND
     1   152   151    2
     2     5     6    1
     3     5     2    1
     4     6     7    1
     5   151   150    1
     6   142   141    2
     7     3     2    1
     8     3     4    2
     9     1     2    1
    10    22    21    1
    11     7     8    1
    12    23    21    1
    13    21    18    1
    14   150   149    1
    15   150   153    1
    16   141   149   am
    17   141   140    1
    18   148   147   ar
    19   148   146   ar
    20   155   154    1
    21   147   145   ar
    22   154   153    1
    23   154   156    1
    24   146   144   ar
    25   140   139    1
    26   140   143    1
    27   145   144   ar
    28   144   143    1
    29    18    19    1
    30    18    17    1
    31    19    20    2
    32    17    11   am
    33   100   101    1
    34     9    10    1
    35   104   101    1
    36   104   106    1
    37   104   105    1
    38    11    10    1
    39    11    12    2
    40   101   102    1
    41   107   105    1
    42    13    10    1
    43    13    14    1
    44    15    14    1
    45   138   137    2
    46    14    16    1
    47    24    25    1
    48   102   103    2
    49   137   136    1
    50   115   113    1
    51    36    33    1
    52    34    33    1
    53    34    35    2
    54    32    33    1
    55    32    26   am
    56    25    26    1
    57    25    28    1
    58   136   135    1
    59   113   112    1
    60    26    27    2
    61    28    29    1
    62    53    52    1
    63   126   125   ar
    64   126   124   ar
    65   125   123   ar
    66   124   122   ar
    67   112   114    1
    68   112   109    1
    69   108   109    1
    70   123   121   ar
    71   122   121   ar
    72    29    31    1
    73    29    30    1
    74   121   120    1
    75    37    38    1
    76   109   110    1
    77    52    51    1
    78   116   110   am
    79   116   117    1
    80    51    50    1
    81   120   117    1
    82    60    59    1
    83    98    99   ar
    84    98    96   ar
    85    50    47    1
    86    99    97   ar
    87    96    94   ar
    88   110   111    2
    89    97    95   ar
    90    38    39    1
    91    38    41    1
    92    39    40    2
    93    94    95   ar
    94    94    93    1
    95   117   118    1
    96    93    90    1
    97    69    68    1
    98    41    42    1
    99    47    46    1
   100    47    48    1
   101    42    43    1
   102    45    43   ar
   103    59    61    1
   104    59    58    1
   105   133   132    1
   106    43    44   ar
   107   118   119    2
   108    90    91    1
   109    90    89    1
   110    58    55    1
   111    68    67    1
   112    91    92    2
   113    48    49    2
   114    67    66    1
   115   132   134    1
   116   132   131    1
   117    77    75    1
   118    55    54    1
   119    55    56    1
   120   131   128    1
   121   127   128    1
   122    62    56   am
   123    62    63    1
   124    88    86    1
   125    56    57    2
   126    66    63    1
   127    76    75    1
   128    63    64    1
   129    75    74    1
   130   128   129    1
   131    74    71    1
   132    86    85    2
   133    86    87    1
   134    85    84    1
   135   129   130    2
   136    71    70    1
   137    71    72    1
   138    64    65    2
   139    84    83    1
   140    72    73    2
   141    83    82    1
   142    82    79    1
   143    80    79    1
   144    80    81    2
   145    79    78    1
