@<TRIPOS>MOLECULE
tmp/1u3rA01.pdb
 172 159 0 0 0
SMALL
GASTEIGER

@<TRIPOS>ATOM
      1  N         37.2520   39.4410   41.9120 N.3    33  MET33      -0.1245
      2  CA        37.0640   38.1130   41.3350 C.3    33  MET33       0.1570
      3  C         36.9930   37.0280   42.3980 C.2    33  MET33       0.2261
      4  O         36.1840   36.1090   42.2940 O.2    33  MET33      -0.2867
      5  CB        38.1820   37.7760   40.3480 C.3    33  MET33       0.0387
      6  CG        38.1290   38.5750   39.0590 C.3    33  MET33       0.0595
      7  SD        36.4840   38.5620   38.3040 S.3    33  MET33      -0.1393
      8  CE        35.8180   40.0510   39.0010 C.3    33  MET33       0.0692
      9  N         33.6060   37.1510   43.9190 N.3    36  LEU36      -0.1231
     10  CA        32.5820   36.6370   43.0130 C.3    36  LEU36       0.1693
     11  C         32.5970   35.1060   42.9370 C.2    36  LEU36       0.2592
     12  O         31.5470   34.4680   43.0120 O.2    36  LEU36      -0.2718
     13  CB        32.7620   37.2320   41.6160 C.3    36  LEU36       0.0284
     14  CG        32.3620   38.7090   41.5360 C.3    36  LEU36       0.0019
     15  CD1       32.7850   39.3010   40.2060 C.3    36  LEU36       0.0001
     16  CD2       30.8570   38.8370   41.7340 C.3    36  LEU36       0.0001
     17  N         33.7800   34.5140   42.7970 N.am   37  THR37      -0.1953
     18  CA        33.8750   33.0600   42.7270 C.3    37  THR37       0.1897
     19  C         33.4080   32.4650   44.0510 C.2    37  THR37       0.2313
     20  O         32.6780   31.4820   44.0710 O.2    37  THR37      -0.2863
     21  CB        35.3200   32.5790   42.4480 C.3    37  THR37       0.1794
     22  OG1       36.1590   32.9020   43.5610 O.3    37  THR37      -0.2208
     23  CG2       35.8780   33.2530   41.2100 C.3    37  THR37       0.0378
     24  N         31.2940   33.7470   46.1780 N.3    39  LEU39      -0.1231
     25  CA        29.8420   33.8830   46.2430 C.3    39  LEU39       0.1693
     26  C         29.1410   32.8630   45.3350 C.2    39  LEU39       0.2591
     27  O         28.1860   32.2090   45.7480 O.2    39  LEU39      -0.2718
     28  CB        29.4100   35.2970   45.8230 C.3    39  LEU39       0.0284
     29  CG        27.9010   35.4940   45.6530 C.3    39  LEU39       0.0019
     30  CD1       27.2260   35.3640   47.0250 C.3    39  LEU39       0.0001
     31  CD2       27.6030   36.8500   45.0440 C.3    39  LEU39       0.0001
     32  N         29.6050   32.7370   44.0950 N.am   40  ALA40      -0.1980
     33  CA        28.9790   31.7940   43.1560 C.3    40  ALA40       0.1597
     34  C         28.9950   30.3710   43.7210 C.2    40  ALA40       0.2287
     35  O         28.0170   29.6310   43.6020 O.2    40  ALA40      -0.2864
     36  CB        29.6910   31.8320   41.8120 C.3    40  ALA40       0.0319
     37  N         26.3780   30.0690   46.4390 N.3    43  GLU43      -0.1245
     38  CA        25.0420   30.0760   45.8660 C.3    43  GLU43       0.1567
     39  C         24.6670   28.7970   45.1250 C.2    43  GLU43       0.2260
     40  O         23.5130   28.3740   45.1630 O.2    43  GLU43      -0.2867
     41  CB        24.8570   31.2910   44.9510 C.3    43  GLU43       0.0388
     42  CG        24.8610   32.6300   45.6850 C.3    43  GLU43       0.1160
     43  CD        24.3730   33.7730   44.8120 C.2    43  GLU43       0.3649
     44  OE1       23.1420   33.9860   44.7130 O.co2  43  GLU43      -0.2457
     45  OE2       25.2260   34.4550   44.2100 O.co2  43  GLU43      -0.2457
     46  N         24.4670   29.6230   35.7140 N.3    74  MET74      -0.1245
     47  CA        24.8810   31.0090   35.5920 C.3    74  MET74       0.1570
     48  C         23.6880   31.9450   35.3630 C.2    74  MET74       0.2261
     49  O         23.5980   32.9950   35.9920 O.2    74  MET74      -0.2867
     50  CB        25.8960   31.1580   34.4550 C.3    74  MET74       0.0387
     51  CG        26.4390   32.5700   34.2950 C.3    74  MET74       0.0595
     52  SD        27.1200   33.2270   35.8190 S.3    74  MET74      -0.1393
     53  CE        28.8780   32.6540   35.6890 C.3    74  MET74       0.0692
     54  N         21.7890   32.4340   38.5580 N.3    77  LEU77      -0.1231
     55  CA        22.5030   33.3120   39.4790 C.3    77  LEU77       0.1693
     56  C         22.2500   34.7640   39.0500 C.2    77  LEU77       0.2591
     57  O         21.9170   35.6150   39.8740 O.2    77  LEU77      -0.2718
     58  CB        24.0090   33.0420   39.4470 C.3    77  LEU77       0.0284
     59  CG        24.5500   31.7530   40.0850 C.3    77  LEU77       0.0019
     60  CD1       26.0800   31.7740   40.0620 C.3    77  LEU77       0.0001
     61  CD2       24.0570   31.6410   41.5290 C.3    77  LEU77       0.0001
     62  N         22.3960   35.0410   37.7580 N.am   78  MET78      -0.1979
     63  CA        22.1940   36.4020   37.2540 C.3    78  MET78       0.1605
     64  C         20.7650   36.9330   37.3810 C.2    78  MET78       0.2287
     65  O         20.5700   38.1350   37.5410 O.2    78  MET78      -0.2864
     66  CB        22.6620   36.5010   35.7970 C.3    78  MET78       0.0413
     67  CG        24.1620   36.2760   35.6390 C.3    78  MET78       0.0598
     68  SD        24.7520   36.2680   33.9240 S.3    78  MET78      -0.1393
     69  CE        26.3770   37.0170   34.1330 C.3    78  MET78       0.0692
     70  N         20.5470   38.1380   40.7810 N.3    81  LEU81      -0.1245
     71  CA        21.2380   39.4160   40.9020 C.3    81  LEU81       0.1561
     72  C         20.3000   40.5480   40.4820 C.2    81  LEU81       0.2260
     73  O         20.2170   41.5800   41.1460 O.2    81  LEU81      -0.2867
     74  CB        22.4870   39.4220   40.0060 C.3    81  LEU81       0.0270
     75  CG        23.2670   40.7200   39.7310 C.3    81  LEU81       0.0019
     76  CD1       23.8360   41.2970   41.0100 C.3    81  LEU81       0.0001
     77  CD2       24.4090   40.4110   38.7550 C.3    81  LEU81       0.0001
     78  N         17.4960   41.2390   43.0250 N.3    84  ARG84      -0.1245
     79  CA        18.0790   41.8980   44.1960 C.3    84  ARG84       0.1563
     80  C         18.4910   43.3370   43.9350 C.2    84  ARG84       0.2260
     81  O         18.4110   44.1680   44.8280 O.2    84  ARG84      -0.2867
     82  CB        19.3110   41.1320   44.7140 C.3    84  ARG84       0.0307
     83  CG        19.0180   39.7320   45.2320 C.3    84  ARG84       0.0489
     84  CD        20.1900   39.1590   46.0430 C.3    84  ARG84       0.2205
     85  NE        21.3960   38.9290   45.2440 N.pl3  84  ARG84      -0.0865
     86  CZ        21.5410   37.9470   44.3610 C.cat  84  ARG84       0.5346
     87  NH1       20.5520   37.0890   44.1490 N.pl3  84  ARG84       0.1354
     88  NH2       22.6860   37.8180   43.6970 N.pl3  84  ARG84       0.1354
     89  N         25.2490   41.8600   44.1330 N.3    94  PHE94      -0.1241
     90  CA        25.6190   40.4510   44.1200 C.3    94  PHE94       0.1605
     91  C         25.3200   39.8530   45.4840 C.2    94  PHE94       0.2264
     92  O         24.8970   38.7060   45.5930 O.2    94  PHE94      -0.2867
     93  CB        27.1020   40.2800   43.7940 C.3    94  PHE94       0.0534
     94  CG        27.4600   40.6530   42.3820 C.ar   94  PHE94      -0.0203
     95  CD1       27.8550   41.9500   42.0670 C.ar   94  PHE94      -0.0042
     96  CD2       27.3900   39.7050   41.3610 C.ar   94  PHE94      -0.0042
     97  CE1       28.1760   42.2970   40.7590 C.ar   94  PHE94      -0.0003
     98  CE2       27.7080   40.0440   40.0530 C.ar   94  PHE94      -0.0003
     99  CZ        28.1040   41.3450   39.7490 C.ar   94  PHE94      -0.0000
    100  N         35.1560   42.6320   32.1450 N.3   111  ILE111     -0.1245
    101  CA        33.9960   42.5580   33.0190 C.3   111  ILE111      0.1561
    102  C         33.0610   43.7640   32.9160 C.2   111  ILE111      0.2260
    103  O         31.8620   43.6490   33.1850 O.2   111  ILE111     -0.2867
    104  CB        34.4290   42.3260   34.4950 C.3   111  ILE111      0.0252
    105  CG1       34.1410   40.8650   34.8680 C.3   111  ILE111      0.0019
    106  CG2       33.7400   43.3120   35.4330 C.3   111  ILE111      0.0019
    107  CD1       34.2460   40.5530   36.3400 C.3   111  ILE111      0.0001
    108  N         30.3040   42.9060   30.7610 N.3   114  ILE114     -0.1231
    109  CA        29.3160   42.0880   31.4480 C.3   114  ILE114      0.1692
    110  C         28.4730   42.8640   32.4630 C.2   114  ILE114      0.2592
    111  O         27.2670   42.6470   32.5540 O.2   114  ILE114     -0.2718
    112  CB        30.0000   40.8760   32.1220 C.3   114  ILE114      0.0266
    113  CG1       30.6680   40.0160   31.0400 C.3   114  ILE114      0.0019
    114  CG2       28.9810   40.0560   32.9030 C.3   114  ILE114      0.0020
    115  CD1       31.4500   38.8430   31.5690 C.3   114  ILE114      0.0001
    116  N         29.0940   43.7650   33.2190 N.am  115  PHE115     -0.1976
    117  CA        28.3480   44.5600   34.1910 C.3   115  PHE115      0.1639
    118  C         27.3070   45.4110   33.4540 C.2   115  PHE115      0.2290
    119  O         26.1650   45.5310   33.8980 O.2   115  PHE115     -0.2864
    120  CB        29.2920   45.4620   34.9950 C.3   115  PHE115      0.0560
    121  CG        29.9570   44.7730   36.1610 C.ar  115  PHE115     -0.0200
    122  CD1       30.0260   43.3860   36.2310 C.ar  115  PHE115     -0.0042
    123  CD2       30.5350   45.5170   37.1820 C.ar  115  PHE115     -0.0042
    124  CE1       30.6590   42.7520   37.2990 C.ar  115  PHE115     -0.0003
    125  CE2       31.1720   44.8920   38.2540 C.ar  115  PHE115     -0.0003
    126  CZ        31.2330   43.5110   38.3120 C.ar  115  PHE115     -0.0000
    127  N         24.2840   43.3170   32.4870 N.3   118  LEU118     -0.1245
    128  CA        23.5060   43.0420   33.6890 C.3   118  LEU118      0.1561
    129  C         22.7330   44.2670   34.1600 C.2   118  LEU118      0.2260
    130  O         21.5570   44.1650   34.5300 O.2   118  LEU118     -0.2867
    131  CB        24.4310   42.5710   34.8150 C.3   118  LEU118      0.0270
    132  CG        25.2200   41.2780   34.5950 C.3   118  LEU118      0.0019
    133  CD1       26.1900   41.0730   35.7520 C.3   118  LEU118      0.0001
    134  CD2       24.2650   40.1060   34.4820 C.3   118  LEU118      0.0001
    135  N         29.3560   35.8550   30.7100 N.3   203  GLY203     -0.1225
    136  CA        29.8880   35.6860   32.0460 C.3   203  GLY203      0.1811
    137  C         30.6940   34.4040   32.1950 C.2   203  GLY203      0.2280
    138  O         31.7110   34.3890   32.8740 O.2   203  GLY203     -0.2866
    139  N         34.1340   34.5300   30.3490 N.3   206  HIS206     -0.1226
    140  CA        35.0650   35.3190   31.1420 C.3   206  HIS206      0.1752
    141  C         35.6000   34.5440   32.3490 C.2   206  HIS206      0.2595
    142  O         36.7860   34.6230   32.6640 O.2   206  HIS206     -0.2718
    143  CB        34.3830   36.6130   31.6020 C.3   206  HIS206      0.0759
    144  CG        35.3050   37.5800   32.2770 C.ar  206  HIS206      0.0818
    145  ND1       35.7760   37.3920   33.5570 N.ar  206  HIS206     -0.2268
    146  CD2       35.8530   38.7390   31.8430 C.ar  206  HIS206      0.1154
    147  CE1       36.5750   38.3920   33.8830 C.ar  206  HIS206      0.1986
    148  NE2       36.6390   39.2230   32.8600 N.ar  206  HIS206     -0.2212
    149  N         34.7250   33.8050   33.0290 N.am  207  LEU207     -0.1980
    150  CA        35.1410   33.0200   34.1860 C.3   207  LEU207      0.1596
    151  C         36.0800   31.9130   33.7240 C.2   207  LEU207      0.2287
    152  O         37.0870   31.6210   34.3720 O.2   207  LEU207     -0.2864
    153  CB        33.9280   32.3960   34.8800 C.3   207  LEU207      0.0297
    154  CG        34.2520   31.3380   35.9400 C.3   207  LEU207      0.0022
    155  CD1       35.0890   31.9510   37.0520 C.3   207  LEU207      0.0001
    156  CD2       32.9560   30.7610   36.4950 C.3   207  LEU207      0.0001
    157  N         39.4270   33.1590   33.2490 N.3   210  MET210     -0.1245
    158  CA        40.0070   33.4170   34.5640 C.3   210  MET210      0.1570
    159  C         40.5510   32.1170   35.1540 C.2   210  MET210      0.2261
    160  O         41.6510   32.0920   35.7120 O.2   210  MET210     -0.2867
    161  CB        38.9600   33.9960   35.5190 C.3   210  MET210      0.0387
    162  CG        38.5080   35.4170   35.2000 C.3   210  MET210      0.0595
    163  SD        39.8110   36.6660   35.3530 S.3   210  MET210     -0.1393
    164  CE        40.4210   36.7300   33.6490 C.3   210  MET210      0.0692
    165  N         31.7960   25.0520   41.9840 N.3   222  LEU222     -0.1245
    166  CA        31.8360   26.0410   40.9070 C.3   222  LEU222      0.1561
    167  C         32.6890   25.5210   39.7580 C.2   222  LEU222      0.2260
    168  O         32.3340   25.6670   38.5870 O.2   222  LEU222     -0.2867
    169  CB        32.4120   27.3760   41.4070 C.3   222  LEU222      0.0270
    170  CG        32.6100   28.4440   40.3200 C.3   222  LEU222      0.0019
    171  CD1       31.2830   28.7660   39.6780 C.3   222  LEU222      0.0001
    172  CD2       33.2310   29.6950   40.9120 C.3   222  LEU222      0.0001
@<TRIPOS>BOND
     1   139   140    1
     2   135   136    1
     3   108   109    1
     4   113   115    1
     5   113   112    1
     6   140   143    1
     7   140   141    1
     8   109   112    1
     9   109   110    1
    10   143   144    1
    11   146   144   ar
    12   146   148   ar
    13   136   137    1
    14   112   114    1
    15   100   101    1
    16   137   138    2
    17   144   145   ar
    18   141   142    2
    19   141   149   am
    20   110   111    2
    21   110   116   am
    22   127   128    1
    23   148   147   ar
    24   102   101    1
    25   102   103    2
    26   101   104    1
    27   149   150    1
    28   116   117    1
    29   157   158    1
    30   118   119    2
    31   118   117    1
    32   145   147   ar
    33   164   163    1
    34   128   129    1
    35   128   131    1
    36   151   150    1
    37   151   152    2
    38    68    69    1
    39    68    67    1
    40   129   130    2
    41   150   153    1
    42   117   120    1
    43    51    50    1
    44    51    52    1
    45    50    47    1
    46   134   132    1
    47   104   105    1
    48   104   106    1
    49   158   159    1
    50   158   161    1
    51   132   131    1
    52   132   133    1
    53   105   107    1
    54   153   154    1
    55   120   121    1
    56   159   160    2
    57   162   163    1
    58   162   161    1
    59    48    47    1
    60    48    49    2
    61    47    46    1
    62    67    66    1
    63    53    52    1
    64    66    63    1
    65   154   156    1
    66   154   155    1
    67   121   122   ar
    68   121   123   ar
    69   122   124   ar
    70   123   125   ar
    71    63    64    1
    72    63    62    1
    73   124   126   ar
    74    64    65    2
    75    62    56   am
    76   125   126   ar
    77     7     8    1
    78     7     6    1
    79    54    55    1
    80   168   167    2
    81    77    75    1
    82    56    55    1
    83    56    57    2
    84     6     5    1
    85    58    55    1
    86    58    59    1
    87   171   170    1
    88    75    74    1
    89    75    76    1
    90    99    98   ar
    91    99    97   ar
    92   167   166    1
    93    74    71    1
    94    98    96   ar
    95    60    59    1
    96    59    61    1
    97    15    14    1
    98   170   172    1
    99   170   169    1
   100     5     2    1
   101    72    71    1
   102    72    73    2
   103    97    95   ar
   104    70    71    1
   105   166   169    1
   106   166   165    1
   107    23    21    1
   108     2     1    1
   109     2     3    1
   110    96    94   ar
   111    14    13    1
   112    14    16    1
   113    13    10    1
   114    36    33    1
   115    95    94   ar
   116     4     3    2
   117    94    93    1
   118    21    18    1
   119    21    22    1
   120    18    17    1
   121    18    19    1
   122    17    11   am
   123    11    12    2
   124    11    10    1
   125    10     9    1
   126    78    79    1
   127    33    34    1
   128    33    32    1
   129    35    34    2
   130    88    86    1
   131    93    90    1
   132    80    79    1
   133    80    81    2
   134    19    20    2
   135    32    26   am
   136    90    89    1
   137    90    91    1
   138    87    86    1
   139    79    82    1
   140    45    43   ar
   141    86    85    2
   142    44    43   ar
   143    82    83    1
   144    43    42    1
   145    41    42    1
   146    41    38    1
   147    31    29    1
   148    39    40    2
   149    39    38    1
   150    83    84    1
   151    85    84    1
   152    26    27    2
   153    26    25    1
   154    91    92    2
   155    29    28    1
   156    29    30    1
   157    28    25    1
   158    38    37    1
   159    24    25    1
