@<TRIPOS>MOLECULE
tmp/1u3sA01.pdb
 171 158 0 0 0
SMALL
GASTEIGER

@<TRIPOS>ATOM
      1  N         37.4570   39.5190   42.0680 N.3    33  MET33      -0.1245
      2  CA        37.1760   38.2240   41.4490 C.3    33  MET33       0.1570
      3  C         37.1090   37.1420   42.5120 C.2    33  MET33       0.2261
      4  O         36.3450   36.1810   42.3980 O.2    33  MET33      -0.2867
      5  CB        38.2510   37.8520   40.4300 C.3    33  MET33       0.0387
      6  CG        38.2340   38.6850   39.1700 C.3    33  MET33       0.0595
      7  SD        36.6130   38.7310   38.3680 S.3    33  MET33      -0.1393
      8  CE        36.0240   40.3050   38.9440 C.3    33  MET33       0.0692
      9  N         33.6260   37.4550   43.9310 N.3    36  LEU36      -0.1231
     10  CA        32.6050   36.9620   43.0180 C.3    36  LEU36       0.1693
     11  C         32.5700   35.4310   42.9390 C.2    36  LEU36       0.2592
     12  O         31.4960   34.8250   43.0430 O.2    36  LEU36      -0.2718
     13  CB        32.8090   37.5620   41.6220 C.3    36  LEU36       0.0284
     14  CG        32.4620   39.0550   41.4970 C.3    36  LEU36       0.0019
     15  CD1       32.8930   39.5870   40.1500 C.3    36  LEU36       0.0001
     16  CD2       30.9690   39.2480   41.6850 C.3    36  LEU36       0.0001
     17  N         33.7360   34.8040   42.7770 N.am   37  THR37      -0.1953
     18  CA        33.7990   33.3440   42.6730 C.3    37  THR37       0.1897
     19  C         33.4570   32.6470   43.9830 C.2    37  THR37       0.2313
     20  O         32.8270   31.5940   43.9860 O.2    37  THR37      -0.2863
     21  CB        35.1870   32.8590   42.1980 C.3    37  THR37       0.1794
     22  OG1       36.1530   33.0620   43.2320 O.3    37  THR37      -0.2208
     23  CG2       35.6160   33.6290   40.9660 C.3    37  THR37       0.0378
     24  N         31.3990   33.7270   46.2470 N.3    39  LEU39      -0.1231
     25  CA        29.9560   33.8920   46.4360 C.3    39  LEU39       0.1693
     26  C         29.1720   32.9940   45.4860 C.2    39  LEU39       0.2591
     27  O         28.1700   32.3790   45.8780 O.2    39  LEU39      -0.2718
     28  CB        29.5510   35.3540   46.1920 C.3    39  LEU39       0.0284
     29  CG        28.0640   35.7130   46.2810 C.3    39  LEU39       0.0019
     30  CD1       27.6010   35.6270   47.7250 C.3    39  LEU39       0.0001
     31  CD2       27.8400   37.1180   45.7500 C.3    39  LEU39       0.0001
     32  N         29.6150   32.9340   44.2310 N.am   40  ALA40      -0.1980
     33  CA        28.9470   32.0970   43.2390 C.3    40  ALA40       0.1597
     34  C         28.9700   30.6750   43.7580 C.2    40  ALA40       0.2287
     35  O         27.9780   29.9410   43.6420 O.2    40  ALA40      -0.2864
     36  CB        29.6660   32.1710   41.9000 C.3    40  ALA40       0.0319
     37  N         26.4410   30.2040   46.6570 N.3    43  GLU43      -0.1245
     38  CA        25.0970   30.1990   46.0790 C.3    43  GLU43       0.1567
     39  C         24.7710   28.9540   45.2670 C.2    43  GLU43       0.2260
     40  O         23.6150   28.5340   45.2290 O.2    43  GLU43      -0.2867
     41  CB        24.8770   31.4440   45.2180 C.3    43  GLU43       0.0388
     42  CG        24.8590   32.7300   46.0060 C.3    43  GLU43       0.1160
     43  CD        24.5620   33.9420   45.1410 C.2    43  GLU43       0.3649
     44  OE1       23.4580   34.0110   44.5520 O.co2  43  GLU43      -0.2457
     45  OE2       25.4380   34.8300   45.0510 O.co2  43  GLU43      -0.2457
     46  N         24.5120   29.6860   35.6710 N.3    74  MET74      -0.1245
     47  CA        24.9400   31.0740   35.5780 C.3    74  MET74       0.1570
     48  C         23.7820   32.0490   35.3670 C.2    74  MET74       0.2261
     49  O         23.8410   33.1830   35.8360 O.2    74  MET74      -0.2867
     50  CB        25.9630   31.2560   34.4520 C.3    74  MET74       0.0387
     51  CG        26.3690   32.7090   34.2330 C.3    74  MET74       0.0595
     52  SD        27.1500   33.4330   35.6930 S.3    74  MET74      -0.1393
     53  CE        28.9290   33.1970   35.2450 C.3    74  MET74       0.0692
     54  N         21.9300   32.5780   38.6360 N.3    77  LEU77      -0.1231
     55  CA        22.6770   33.4600   39.5280 C.3    77  LEU77       0.1693
     56  C         22.4250   34.9040   39.0970 C.2    77  LEU77       0.2591
     57  O         22.1190   35.7630   39.9290 O.2    77  LEU77      -0.2718
     58  CB        24.1830   33.1830   39.4770 C.3    77  LEU77       0.0284
     59  CG        24.7520   31.8980   40.0920 C.3    77  LEU77       0.0019
     60  CD1       26.2700   31.9530   39.9870 C.3    77  LEU77       0.0001
     61  CD2       24.3400   31.7600   41.5510 C.3    77  LEU77       0.0001
     62  N         22.5360   35.1740   37.7990 N.am   78  MET78      -0.1979
     63  CA        22.3200   36.5320   37.3120 C.3    78  MET78       0.1605
     64  C         20.8800   37.0100   37.5220 C.2    78  MET78       0.2287
     65  O         20.6470   38.1820   37.8400 O.2    78  MET78      -0.2864
     66  CB        22.7110   36.6320   35.8370 C.3    78  MET78       0.0413
     67  CG        24.1810   36.3290   35.6070 C.3    78  MET78       0.0598
     68  SD        24.6820   36.3490   33.8790 S.3    78  MET78      -0.1393
     69  CE        26.3370   37.0220   33.9840 C.3    78  MET78       0.0692
     70  N         20.6250   38.0720   40.8440 N.3    81  LEU81      -0.1245
     71  CA        21.3420   39.3200   40.9990 C.3    81  LEU81       0.1561
     72  C         20.4250   40.4820   40.6130 C.2    81  LEU81       0.2260
     73  O         20.3050   41.4570   41.3440 O.2    81  LEU81      -0.2867
     74  CB        22.5860   39.3200   40.1020 C.3    81  LEU81       0.0270
     75  CG        23.2170   40.6810   39.8140 C.3    81  LEU81       0.0019
     76  CD1       23.5910   41.3540   41.1150 C.3    81  LEU81       0.0001
     77  CD2       24.4360   40.4980   38.9210 C.3    81  LEU81       0.0001
     78  N         17.6410   41.3620   43.1940 N.3    84  ARG84      -0.1245
     79  CA        18.2070   42.0540   44.3490 C.3    84  ARG84       0.1563
     80  C         18.6670   43.4770   44.0620 C.2    84  ARG84       0.2260
     81  O         18.7740   44.2910   44.9710 O.2    84  ARG84      -0.2867
     82  CB        19.3980   41.2710   44.9120 C.3    84  ARG84       0.0307
     83  CG        19.0720   39.8730   45.4010 C.3    84  ARG84       0.0489
     84  CD        20.1920   39.3240   46.2870 C.3    84  ARG84       0.2205
     85  NE        21.4180   39.0330   45.5420 N.pl3  84  ARG84      -0.0865
     86  CZ        21.5690   37.9900   44.7340 C.cat  84  ARG84       0.5346
     87  NH1       20.5690   37.1270   44.5620 N.pl3  84  ARG84       0.1354
     88  NH2       22.7210   37.8070   44.0960 N.pl3  84  ARG84       0.1354
     89  N         25.2980   42.0190   44.5210 N.3    94  PHE94      -0.1241
     90  CA        25.6450   40.6040   44.5060 C.3    94  PHE94       0.1605
     91  C         25.3380   40.0490   45.8880 C.2    94  PHE94       0.2264
     92  O         24.7790   38.9680   46.0280 O.2    94  PHE94      -0.2867
     93  CB        27.1250   40.4080   44.1490 C.3    94  PHE94       0.0534
     94  CG        27.4610   40.7810   42.7180 C.ar   94  PHE94      -0.0203
     95  CD1       27.9600   42.0490   42.4050 C.ar   94  PHE94      -0.0042
     96  CD2       27.2560   39.8680   41.6810 C.ar   94  PHE94      -0.0042
     97  CE1       28.2490   42.4010   41.0840 C.ar   94  PHE94      -0.0003
     98  CE2       27.5410   40.2080   40.3520 C.ar   94  PHE94      -0.0003
     99  CZ        28.0400   41.4800   40.0530 C.ar   94  PHE94      -0.0000
    100  N         35.1590   42.7330   32.2840 N.3   111  ILE111     -0.1245
    101  CA        34.0710   42.7330   33.2500 C.3   111  ILE111      0.1561
    102  C         33.0810   43.8810   33.0660 C.2   111  ILE111      0.2260
    103  O         31.8690   43.7000   33.2250 O.2   111  ILE111     -0.2867
    104  CB        34.6310   42.7560   34.7010 C.3   111  ILE111      0.0252
    105  CG1       35.0580   41.3410   35.1180 C.3   111  ILE111      0.0019
    106  CG2       33.5980   43.2990   35.6740 C.3   111  ILE111      0.0019
    107  CD1       33.9180   40.3240   35.1660 C.3   111  ILE111      0.0001
    108  N         30.2330   42.9120   30.8780 N.3   114  ILE114     -0.1231
    109  CA        29.2600   42.0460   31.5330 C.3   114  ILE114      0.1692
    110  C         28.3890   42.7950   32.5350 C.2   114  ILE114      0.2592
    111  O         27.1810   42.5660   32.5980 O.2   114  ILE114     -0.2718
    112  CB        29.9720   40.8820   32.2440 C.3   114  ILE114      0.0266
    113  CG1       30.7730   40.0800   31.2160 C.3   114  ILE114      0.0019
    114  CG2       28.9490   40.0030   32.9670 C.3   114  ILE114      0.0020
    115  CD1       31.7570   39.1100   31.8340 C.3   114  ILE114      0.0001
    116  N         28.9980   43.6710   33.3300 N.am  115  PHE115     -0.1976
    117  CA        28.2380   44.4560   34.3020 C.3   115  PHE115      0.1639
    118  C         27.2160   45.3040   33.5460 C.2   115  PHE115      0.2290
    119  O         26.0580   45.3950   33.9460 O.2   115  PHE115     -0.2864
    120  CB        29.1680   45.3660   35.1220 C.3   115  PHE115      0.0560
    121  CG        29.8740   44.6640   36.2640 C.ar  115  PHE115     -0.0200
    122  CD1       29.9050   43.2730   36.3450 C.ar  115  PHE115     -0.0042
    123  CD2       30.5380   45.4050   37.2450 C.ar  115  PHE115     -0.0042
    124  CE1       30.5900   42.6250   37.3850 C.ar  115  PHE115     -0.0003
    125  CE2       31.2280   44.7730   38.2890 C.ar  115  PHE115     -0.0003
    126  CZ        31.2540   43.3810   38.3580 C.ar  115  PHE115     -0.0000
    127  N         24.3140   43.2950   32.6260 N.3   118  LEU118     -0.1245
    128  CA        23.5340   43.0230   33.8200 C.3   118  LEU118      0.1561
    129  C         22.7890   44.2710   34.2950 C.2   118  LEU118      0.2260
    130  O         21.6340   44.1730   34.7200 O.2   118  LEU118     -0.2867
    131  CB        24.4450   42.4950   34.9350 C.3   118  LEU118      0.0270
    132  CG        25.1620   41.1640   34.6620 C.3   118  LEU118      0.0019
    133  CD1       26.1710   40.9100   35.7530 C.3   118  LEU118      0.0001
    134  CD2       24.1620   40.0230   34.5880 C.3   118  LEU118      0.0001
    135  N         29.6010   35.7980   30.6790 N.3   202  GLY202     -0.1225
    136  CA        30.2040   35.6820   31.9900 C.3   202  GLY202      0.1811
    137  C         30.9750   34.3930   32.1850 C.2   202  GLY202      0.2280
    138  O         31.9930   34.3790   32.8770 O.2   202  GLY202     -0.2866
    139  N         34.1940   34.6380   30.2290 N.3   205  HIS205     -0.1226
    140  CA        35.1570   35.4210   30.9940 C.3   205  HIS205      0.1752
    141  C         35.6810   34.6530   32.2000 C.2   205  HIS205      0.2595
    142  O         36.8710   34.6930   32.4980 O.2   205  HIS205     -0.2718
    143  CB        34.5150   36.7350   31.4390 C.3   205  HIS205      0.0759
    144  CG        35.4650   37.6770   32.1040 C.ar  205  HIS205      0.0818
    145  ND1       36.0070   37.4330   33.3470 N.ar  205  HIS205     -0.2268
    146  CD2       35.9630   38.8700   31.7020 C.ar  205  HIS205      0.1154
    147  CE1       36.7980   38.4360   33.6840 C.ar  205  HIS205      0.1986
    148  NE2       36.7890   39.3200   32.7030 N.ar  205  HIS205     -0.2212
    149  N         34.7860   33.9560   32.8910 N.am  206  LEU206     -0.1980
    150  CA        35.1640   33.1680   34.0540 C.3   206  LEU206      0.1596
    151  C         36.1170   32.0530   33.6320 C.2   206  LEU206      0.2287
    152  O         37.1160   31.7830   34.3000 O.2   206  LEU206     -0.2864
    153  CB        33.9140   32.5770   34.6970 C.3   206  LEU206      0.0297
    154  CG        34.1430   31.5740   35.8180 C.3   206  LEU206      0.0022
    155  CD1       34.9750   32.2180   36.9260 C.3   206  LEU206      0.0001
    156  CD2       32.7980   31.0950   36.3350 C.3   206  LEU206      0.0001
    157  N         39.5110   33.2230   33.0950 N.3   209  MET209     -0.1245
    158  CA        40.1150   33.4540   34.4060 C.3   209  MET209      0.1570
    159  C         40.6270   32.1520   35.0090 C.2   209  MET209      0.2261
    160  O         41.7530   32.0980   35.5030 O.2   209  MET209     -0.2867
    161  CB        39.1140   34.0960   35.3710 C.3   209  MET209      0.0387
    162  CG        38.6940   35.5050   34.9830 C.3   209  MET209      0.0595
    163  SD        40.0900   36.6640   34.8870 S.3   209  MET209     -0.1393
    164  CE        40.4040   36.6730   33.1130 C.3   209  MET209      0.0692
    165  N         41.8050   33.1220   39.8030 N.3   215  VAL215     -0.1245
    166  CA        40.6830   33.0470   40.7330 C.3   215  VAL215      0.1561
    167  C         40.6930   31.7180   41.4720 C.2   215  VAL215      0.2260
    168  O         40.9540   30.6720   40.8820 O.2   215  VAL215     -0.2867
    169  CB        39.3080   33.1700   40.0150 C.3   215  VAL215      0.0252
    170  CG1       39.1630   34.5400   39.3970 C.3   215  VAL215      0.0019
    171  CG2       39.1710   32.0810   38.9580 C.3   215  VAL215      0.0019
@<TRIPOS>BOND
     1   139   140    1
     2   135   136    1
     3   108   109    1
     4   140   143    1
     5   140   141    1
     6   113   115    1
     7   113   112    1
     8   143   144    1
     9   109   112    1
    10   109   110    1
    11   146   144   ar
    12   146   148   ar
    13   136   137    1
    14   144   145   ar
    15   137   138    2
    16   141   142    2
    17   141   149   am
    18   112   114    1
    19   100   101    1
    20   110   111    2
    21   110   116   am
    22   127   128    1
    23   148   147   ar
    24   149   150    1
    25   102   103    2
    26   102   101    1
    27   157   158    1
    28   164   163    1
    29   101   104    1
    30   116   117    1
    31   145   147   ar
    32   118   119    2
    33   118   117    1
    34   151   150    1
    35   151   152    2
    36   128   129    1
    37   128   131    1
    38    68    69    1
    39    68    67    1
    40   150   153    1
    41    51    50    1
    42    51    52    1
    43   129   130    2
    44   117   120    1
    45   158   159    1
    46   158   161    1
    47    50    47    1
    48   134   132    1
    49   132   131    1
    50   132   133    1
    51   153   154    1
    52   104   105    1
    53   104   106    1
    54   163   162    1
    55   162   161    1
    56   159   160    2
    57   105   107    1
    58   120   121    1
    59    53    52    1
    60    48    47    1
    61    48    49    2
    62    47    46    1
    63    67    66    1
    64   154   156    1
    65   154   155    1
    66    66    63    1
    67   121   122   ar
    68   121   123   ar
    69   122   124   ar
    70   123   125   ar
    71    63    64    1
    72    63    62    1
    73   124   126   ar
    74    64    65    2
    75    62    56   am
    76   125   126   ar
    77     7     8    1
    78     7     6    1
    79    54    55    1
    80    77    75    1
    81   171   169    1
    82    56    55    1
    83    56    57    2
    84     6     5    1
    85   170   169    1
    86    58    55    1
    87    58    59    1
    88   165   166    1
    89    75    74    1
    90    75    76    1
    91    60    59    1
    92   169   166    1
    93    99    98   ar
    94    99    97   ar
    95    59    61    1
    96    74    71    1
    97    15    14    1
    98    98    96   ar
    99     5     2    1
   100    72    71    1
   101    72    73    2
   102   166   167    1
   103    70    71    1
   104   168   167    2
   105    23    21    1
   106    97    95   ar
   107     2     1    1
   108     2     3    1
   109    14    13    1
   110    14    16    1
   111    13    10    1
   112    96    94   ar
   113    36    33    1
   114    21    18    1
   115    21    22    1
   116     4     3    2
   117    95    94   ar
   118    18    17    1
   119    18    19    1
   120    94    93    1
   121    17    11   am
   122    11    10    1
   123    11    12    2
   124    10     9    1
   125    78    79    1
   126    33    34    1
   127    33    32    1
   128    35    34    2
   129    19    20    2
   130    80    79    1
   131    80    81    2
   132    88    86    1
   133    93    90    1
   134    32    26   am
   135    79    82    1
   136    90    89    1
   137    90    91    1
   138    44    43   ar
   139    87    86    1
   140    86    85    2
   141    82    83    1
   142    45    43   ar
   143    43    42    1
   144    41    42    1
   145    41    38    1
   146    40    39    2
   147    39    38    1
   148    83    84    1
   149    26    27    2
   150    26    25    1
   151    85    84    1
   152    31    29    1
   153    91    92    2
   154    38    37    1
   155    28    29    1
   156    28    25    1
   157    24    25    1
   158    29    30    1
