@<TRIPOS>MOLECULE
tmp/1u3tB01.pdb
 102 91 0 0 0
SMALL
GASTEIGER

@<TRIPOS>ATOM
      1  N         -1.1610   -4.7210   45.6610 N.3    46  CYS46      -0.1235
      2  CA        -0.9600   -4.6260   44.2110 C.3    46  CYS46       0.1677
      3  C         -0.8450   -6.0090   43.5770 C.2    46  CYS46       0.2270
      4  O         -0.4410   -6.9700   44.2290 O.2    46  CYS46      -0.2867
      5  CB         0.3000   -3.8060   43.9360 C.3    46  CYS46       0.0956
      6  SG         0.6500   -3.4460   42.2240 S.3    46  CYS46      -0.0801
      7  N          1.3400   -7.0960   41.6610 N.3    48  THR48      -0.1218
      8  CA         2.7410   -7.4940   41.6960 C.3    48  THR48       0.1862
      9  C          3.0420   -8.3210   42.9450 C.2    48  THR48       0.2287
     10  O          3.8150   -9.2720   42.8800 O.2    48  THR48      -0.2866
     11  CB         3.6530   -6.2580   41.6390 C.3    48  THR48       0.1770
     12  OG1        3.5540   -5.6680   40.3370 O.3    48  THR48      -0.2211
     13  CG2        5.1030   -6.6180   41.9310 C.3    48  THR48       0.0375
     14  N          6.2910  -13.9990   39.5010 N.3    57  MET57      -0.1245
     15  CA         7.4380  -13.1010   39.5430 C.3    57  MET57       0.1570
     16  C          8.3980  -13.7020   40.5530 C.2    57  MET57       0.2261
     17  O          8.0470  -13.8560   41.7260 O.2    57  MET57      -0.2867
     18  CB         7.0480  -11.6920   39.9940 C.3    57  MET57       0.0387
     19  CG         8.2530  -10.7510   40.0770 C.3    57  MET57       0.0595
     20  SD         7.9160   -9.1220   40.7530 S.3    57  MET57      -0.1393
     21  CE         6.6620   -8.6130   39.6350 C.3    57  MET57       0.0692
     22  N          4.9030   -2.9760   48.7760 N.3    67  HIS67      -0.1241
     23  CA         5.7260   -1.9300   48.2140 C.3    67  HIS67       0.1621
     24  C          4.9310   -0.6600   47.9400 C.2    67  HIS67       0.2264
     25  O          5.4970    0.3400   47.5200 O.2    67  HIS67      -0.2867
     26  CB         6.3560   -2.4410   46.9170 C.3    67  HIS67       0.0745
     27  CG         5.3450   -2.8400   45.8930 C.ar   67  HIS67       0.0817
     28  ND1        4.7250   -4.0670   45.9340 N.ar   67  HIS67      -0.2268
     29  CD2        4.7670   -2.1560   44.8790 C.ar   67  HIS67       0.1154
     30  CE1        3.7960   -4.1240   45.0000 C.ar   67  HIS67       0.1986
     31  NE2        3.8020   -2.9750   44.3460 N.ar   67  HIS67      -0.2212
     32  N          9.5260    1.9490   45.6940 N.3    93  ALA93      -0.1231
     33  CA         9.7490    0.5980   45.1260 C.3    93  ALA93       0.1694
     34  C         10.8610    0.5530   44.1030 C.2    93  ALA93       0.2591
     35  O         11.3500   -0.4480   43.7200 O.2    93  ALA93      -0.2718
     36  CB         8.4530    0.0260   44.5700 C.3    93  ALA93       0.0304
     37  N         11.2080    1.7300   43.6330 N.am   94  ILE94      -0.1980
     38  CA        12.3260    1.9690   42.7130 C.3    94  ILE94       0.1595
     39  C         12.9980    3.1830   43.2990 C.2    94  ILE94       0.2287
     40  O         12.3670    4.2010   43.4700 O.2    94  ILE94      -0.2864
     41  CB        11.8460    2.2970   41.2530 C.3    94  ILE94       0.0276
     42  CG1       11.2390    1.0670   40.5370 C.3    94  ILE94       0.0022
     43  CG2       13.0030    2.7040   40.3750 C.3    94  ILE94       0.0022
     44  CD1       12.1490   -0.1300   40.5700 C.3    94  ILE94       0.0001
     45  N         14.8820   -4.8980   40.9760 N.3   116  VAL116     -0.1245
     46  CA        13.9290   -5.5310   40.0780 C.3   116  VAL116      0.1561
     47  C         14.6140   -6.3780   39.0120 C.2   116  VAL116      0.2260
     48  O         14.2300   -7.5340   38.8200 O.2   116  VAL116     -0.2867
     49  CB        13.0110   -4.4830   39.3940 C.3   116  VAL116      0.0252
     50  CG1       11.9160   -5.1690   38.5860 C.3   116  VAL116      0.0019
     51  CG2       12.3940   -3.5620   40.4390 C.3   116  VAL116      0.0019
     52  N         11.8270   -5.4940   46.6610 N.3   141  LEU141     -0.1245
     53  CA        11.9490   -4.2110   45.9620 C.3   141  LEU141      0.1561
     54  C         12.6310   -3.1630   46.8390 C.2   141  LEU141      0.2260
     55  O         12.4460   -1.9620   46.6670 O.2   141  LEU141     -0.2867
     56  CB        10.5690   -3.7310   45.4960 C.3   141  LEU141      0.0270
     57  CG         9.8060   -4.7460   44.6370 C.3   141  LEU141      0.0019
     58  CD1        8.3970   -4.2490   44.3590 C.3   141  LEU141      0.0001
     59  CD2       10.5640   -5.0130   43.3350 C.3   141  LEU141      0.0001
     60  N          2.8550    3.3700   44.0030 N.3   174  CYS174     -0.1235
     61  CA         2.8890    2.3830   42.9170 C.3   174  CYS174      0.1677
     62  C          1.7080    2.4820   41.9700 C.2   174  CYS174      0.2270
     63  O          1.8170    3.0400   40.8750 O.2   174  CYS174     -0.2867
     64  CB         2.9610    0.9480   43.4430 C.3   174  CYS174      0.0956
     65  SG         2.9760   -0.2280   42.0720 S.3   174  CYS174     -0.0801
     66  N          1.9410    4.5740   38.5250 N.3   178  THR178     -0.1218
     67  CA         2.2330    3.6950   37.4020 C.3   178  THR178      0.1862
     68  C          1.1830    3.8370   36.3110 C.2   178  THR178      0.2287
     69  O          1.5160    4.0030   35.1500 O.2   178  THR178     -0.2866
     70  CB         2.3130    2.2200   37.8250 C.3   178  THR178      0.1770
     71  OG1        3.3910    2.0520   38.7530 O.3   178  THR178     -0.2211
     72  CG2        2.5570    1.3300   36.6090 C.3   178  THR178      0.0375
     73  N          2.4150   -2.2710   30.6030 N.3   292  VAL292     -0.1245
     74  CA         2.4170   -1.8770   32.0020 C.3   292  VAL292      0.1561
     75  C          2.4430   -3.1300   32.8740 C.2   292  VAL292      0.2260
     76  O          3.1800   -3.2170   33.8580 O.2   292  VAL292     -0.2867
     77  CB         1.1770   -1.0250   32.3520 C.3   292  VAL292      0.0252
     78  CG1        1.3010   -0.4960   33.7570 C.3   292  VAL292      0.0019
     79  CG2        1.0220    0.1350   31.3640 C.3   292  VAL292      0.0019
     80  N          3.0730   -6.8290   34.3610 N.3   294  VAL294     -0.1245
     81  CA         4.2500   -7.6500   34.5200 C.3   294  VAL294      0.1561
     82  C          3.8660   -9.0500   34.0750 C.2   294  VAL294      0.2260
     83  O          2.9070   -9.6350   34.5860 O.2   294  VAL294     -0.2867
     84  CB         4.7370   -7.6800   35.9740 C.3   294  VAL294      0.0252
     85  CG1        5.9900   -8.5240   36.0660 C.3   294  VAL294      0.0019
     86  CG2        5.0180   -6.2660   36.4660 C.3   294  VAL294      0.0019
     87  N          8.3830    1.4370   34.1290 N.3   318  ILE318     -0.1231
     88  CA         8.2530    1.0930   35.5300 C.3   318  ILE318      0.1692
     89  C          7.8040    2.3800   36.2170 C.2   318  ILE318      0.2591
     90  O          8.2150    3.4630   35.8170 O.2   318  ILE318     -0.2718
     91  CB         9.6260    0.6450   36.1100 C.3   318  ILE318      0.0266
     92  CG1       10.1360   -0.6150   35.3960 C.3   318  ILE318      0.0019
     93  CG2        9.5300    0.3860   37.5830 C.3   318  ILE318      0.0020
     94  CD1        9.2820   -1.8760   35.5990 C.3   318  ILE318      0.0001
     95  N          6.8820    2.2510   37.1690 N.am  319  LEU319     -0.1980
     96  CA         6.3460    3.3700   37.9410 C.3   319  LEU319      0.1596
     97  C          5.9080    4.5610   37.0880 C.2   319  LEU319      0.2287
     98  O          6.1050    5.7180   37.4720 O.2   319  LEU319     -0.2864
     99  CB         7.3660    3.8160   39.0020 C.3   319  LEU319      0.0297
    100  CG         6.8490    4.6270   40.2030 C.3   319  LEU319      0.0022
    101  CD1        5.9690    3.7490   41.0740 C.3   319  LEU319      0.0001
    102  CD2        8.0270    5.1360   41.0200 C.3   319  LEU319      0.0001
@<TRIPOS>BOND
     1    73    74    1
     2    79    77    1
     3    74    77    1
     4    74    75    1
     5    77    78    1
     6    75    76    2
     7    82    81    1
     8    82    83    2
     9    87    88    1
    10    80    81    1
    11    81    84    1
    12    69    68    2
    13    92    94    1
    14    92    91    1
    15    88    91    1
    16    88    89    1
    17    90    89    2
    18    84    85    1
    19    84    86    1
    20    91    93    1
    21    89    95   am
    22    68    67    1
    23    72    70    1
    24    97    98    2
    25    97    96    1
    26    95    96    1
    27    67    70    1
    28    67    66    1
    29    70    71    1
    30    96    99    1
    31    50    49    1
    32    48    47    2
    33    99   100    1
    34    47    46    1
    35    49    46    1
    36    49    51    1
    37    14    15    1
    38    15    18    1
    39    15    16    1
    40    21    20    1
    41    18    19    1
    42    19    20    1
    43    46    45    1
    44   100   102    1
    45   100   101    1
    46    12    11    1
    47    43    41    1
    48    42    44    1
    49    42    41    1
    50    16    17    2
    51    63    62    2
    52    41    38    1
    53    11     8    1
    54    11    13    1
    55     7     8    1
    56     8     9    1
    57    62    61    1
    58    65    64    1
    59     6     5    1
    60    38    39    1
    61    38    37    1
    62    10     9    2
    63    61    64    1
    64    61    60    1
    65    39    40    2
    66    59    57    1
    67     3     2    1
    68     3     4    2
    69    37    34   am
    70    35    34    2
    71     5     2    1
    72    34    33    1
    73     2     1    1
    74    31    29   ar
    75    31    30   ar
    76    58    57    1
    77    36    33    1
    78    57    56    1
    79    29    27   ar
    80    30    28   ar
    81    33    32    1
    82    56    53    1
    83    27    28   ar
    84    27    26    1
    85    53    52    1
    86    53    54    1
    87    55    54    2
    88    26    23    1
    89    25    24    2
    90    24    23    1
    91    23    22    1
