@<TRIPOS>MOLECULE
tmp/1u3uB01.pdb
 90 82 0 0 0
SMALL
GASTEIGER

@<TRIPOS>ATOM
      1  N        -11.6880    5.1730   24.5320 N.3    46  CYS46      -0.1235
      2  CA       -11.3210    5.0960   23.1110 C.3    46  CYS46       0.1677
      3  C        -12.4010    4.3250   22.3600 C.2    46  CYS46       0.2270
      4  O        -13.0390    3.4390   22.9210 O.2    46  CYS46      -0.2867
      5  CB        -9.9550    4.3930   22.9990 C.3    46  CYS46       0.0956
      6  SG        -9.3680    4.0190   21.3200 S.3    46  CYS46      -0.0801
      7  N        -12.1000    2.0770   20.3610 N.3    48  THR48      -0.1218
      8  CA       -11.7570    0.6670   20.3040 C.3    48  THR48       0.1862
      9  C        -12.4390   -0.1190   21.4140 C.2    48  THR48       0.2287
     10  O        -12.8710   -1.2450   21.2050 O.2    48  THR48      -0.2866
     11  CB       -10.2260    0.4730   20.3620 C.3    48  THR48       0.1770
     12  OG1       -9.6660    1.0400   19.1610 O.3    48  THR48      -0.2211
     13  CG2       -9.8560   -0.9950   20.4290 C.3    48  THR48       0.0375
     14  N        -15.7330   -5.4350   17.1630 N.3    57  LEU57      -0.1245
     15  CA       -14.4340   -6.0410   17.4300 C.3    57  LEU57       0.1561
     16  C        -14.6970   -7.2390   18.3460 C.2    57  LEU57       0.2260
     17  O        -15.2920   -7.0790   19.4050 O.2    57  LEU57      -0.2867
     18  CB       -13.5090   -5.0620   18.1650 C.3    57  LEU57       0.0270
     19  CG       -12.1210   -5.5810   18.5420 C.3    57  LEU57       0.0019
     20  CD1      -11.3640   -5.9850   17.3010 C.3    57  LEU57       0.0001
     21  CD2      -11.3500   -4.4920   19.2840 C.3    57  LEU57       0.0001
     22  N         -7.7660    0.3890   27.7630 N.3    67  HIS67      -0.1241
     23  CA        -6.3620    0.2600   27.3470 C.3    67  HIS67       0.1621
     24  C         -5.5950    1.5760   27.2770 C.2    67  HIS67       0.2264
     25  O         -4.3610    1.5570   27.3070 O.2    67  HIS67      -0.2867
     26  CB        -6.2850   -0.4410   25.9900 C.3    67  HIS67       0.0745
     27  CG        -6.9940    0.2960   24.9030 C.ar   67  HIS67       0.0817
     28  ND1       -8.3660    0.2660   24.7510 N.ar   67  HIS67      -0.2268
     29  CD2       -6.5280    1.1510   23.9570 C.ar   67  HIS67       0.1154
     30  CE1       -8.7160    1.0760   23.7730 C.ar   67  HIS67       0.1986
     31  NE2       -7.6170    1.6330   23.2750 N.ar   67  HIS67      -0.2212
     32  N         -1.1830   -1.2010   24.5870 N.3    93  PHE93      -0.1241
     33  CA        -2.0410   -2.2150   23.9340 C.3    93  PHE93       0.1605
     34  C         -1.3060   -3.1580   22.9820 C.2    93  PHE93       0.2264
     35  O         -1.8350   -4.2030   22.6210 O.2    93  PHE93      -0.2867
     36  CB        -3.3050   -1.6060   23.2870 C.3    93  PHE93       0.0534
     37  CG        -3.0750   -0.9550   21.9520 C.ar   93  PHE93      -0.0203
     38  CD1       -2.8340    0.4060   21.8620 C.ar   93  PHE93      -0.0042
     39  CD2       -3.1370   -1.7070   20.7820 C.ar   93  PHE93      -0.0042
     40  CE1       -2.6520    1.0300   20.6260 C.ar   93  PHE93      -0.0003
     41  CE2       -2.9570   -1.0990   19.5370 C.ar   93  PHE93      -0.0003
     42  CZ        -2.7110    0.2720   19.4600 C.ar   93  PHE93      -0.0000
     43  N          4.2770   -4.1430   15.3520 N.3   110  TYR110     -0.1241
     44  CA         3.2420   -5.1080   15.7230 C.3   110  TYR110      0.1605
     45  C          3.8930   -6.3680   16.3190 C.2   110  TYR110      0.2264
     46  O          3.9080   -7.4420   15.7160 O.2   110  TYR110     -0.2867
     47  CB         2.3900   -5.4280   14.4730 C.3   110  TYR110      0.0534
     48  CG         1.1360   -6.2430   14.6910 C.ar  110  TYR110     -0.0201
     49  CD1        0.0420   -5.7140   15.3710 C.ar  110  TYR110     -0.0009
     50  CD2        1.0180   -7.5240   14.1520 C.ar  110  TYR110     -0.0009
     51  CE1       -1.1530   -6.4480   15.5070 C.ar  110  TYR110      0.0417
     52  CE2       -0.1580   -8.2550   14.2820 C.ar  110  TYR110      0.0417
     53  CZ        -1.2380   -7.7090   14.9560 C.ar  110  TYR110      0.1957
     54  OH        -2.4050   -8.4450   15.0690 O.3   110  TYR110     -0.2866
     55  N         -3.9460   -8.9380   19.5440 N.3   116  LEU116     -0.1245
     56  CA        -4.8430   -8.2340   18.6330 C.3   116  LEU116      0.1561
     57  C         -5.4550   -9.0550   17.5110 C.2   116  LEU116      0.2260
     58  O         -6.6570   -8.9530   17.2650 O.2   116  LEU116     -0.2867
     59  CB        -4.1400   -7.0300   18.0150 C.3   116  LEU116      0.0270
     60  CG        -3.9390   -5.8020   18.8930 C.3   116  LEU116      0.0019
     61  CD1       -2.8660   -6.0510   19.9220 C.3   116  LEU116      0.0001
     62  CD2       -3.5460   -4.6310   18.0030 C.3   116  LEU116      0.0001
     63  N         -6.5780   -6.7050   25.1780 N.3   141  LEU141     -0.1245
     64  CA        -5.3660   -6.1570   24.5650 C.3   141  LEU141      0.1561
     65  C         -4.2020   -6.2030   25.5580 C.2   141  LEU141      0.2260
     66  O         -3.2920   -5.3760   25.5170 O.2   141  LEU141     -0.2867
     67  CB        -5.5850   -4.7010   24.0820 C.3   141  LEU141      0.0270
     68  CG        -6.8590   -4.4520   23.2520 C.3   141  LEU141      0.0019
     69  CD1       -6.8840   -3.0030   22.7760 C.3   141  LEU141      0.0001
     70  CD2       -6.9550   -5.4040   22.0670 C.3   141  LEU141      0.0001
     71  N         -2.6970    5.6850   23.9350 N.3   174  CYS174     -0.1235
     72  CA        -3.3100    5.1220   22.7380 C.3   174  CYS174      0.1677
     73  C         -3.6820    6.1220   21.6630 C.2   174  CYS174      0.2270
     74  O         -3.0280    6.2030   20.6300 O.2   174  CYS174     -0.2867
     75  CB        -4.5640    4.2820   23.0500 C.3   174  CYS174      0.0956
     76  SG        -5.2370    3.6430   21.4610 S.3   174  CYS174     -0.0801
     77  N        -10.3590    0.8930   13.0150 N.3   294  VAL294     -0.1245
     78  CA       -10.5050   -0.5610   13.1070 C.3   294  VAL294      0.1561
     79  C        -11.8260   -0.8810   12.4030 C.2   294  VAL294      0.2260
     80  O        -12.8660   -0.3820   12.7970 O.2   294  VAL294     -0.2867
     81  CB       -10.5860   -1.0110   14.5640 C.3   294  VAL294      0.0252
     82  CG1      -10.9550   -2.5020   14.6350 C.3   294  VAL294      0.0019
     83  CG2       -9.2480   -0.7390   15.2610 C.3   294  VAL294      0.0019
     84  N         -0.7910   -0.0630   13.5740 N.3   318  VAL318     -0.1245
     85  CA        -1.3440    0.1230   14.9070 C.3   318  VAL318      0.1561
     86  C         -0.4000    1.0840   15.6060 C.2   318  VAL318      0.2260
     87  O          0.7830    1.2200   15.2460 O.2   318  VAL318     -0.2867
     88  CB        -1.4370   -1.1900   15.7460 C.3   318  VAL318      0.0252
     89  CG1       -2.3870   -2.1750   15.1000 C.3   318  VAL318      0.0019
     90  CG2       -0.0600   -1.8150   15.9530 C.3   318  VAL318      0.0019
@<TRIPOS>BOND
     1    79    80    2
     2    79    78    1
     3    77    78    1
     4    78    81    1
     5    84    85    1
     6    50    52   ar
     7    50    48   ar
     8    52    53   ar
     9    47    48    1
    10    47    44    1
    11    81    82    1
    12    81    83    1
    13    48    49   ar
    14    85    86    1
    15    85    88    1
    16    53    54    1
    17    53    51   ar
    18    89    88    1
    19    87    86    2
    20    43    44    1
    21    49    51   ar
    22    46    45    2
    23    44    45    1
    24    88    90    1
    25    14    15    1
    26    58    57    2
    27    20    19    1
    28    15    18    1
    29    15    16    1
    30    57    56    1
    31    62    60    1
    32    59    56    1
    33    59    60    1
    34    18    19    1
    35    16    17    2
    36    19    21    1
    37    56    55    1
    38    60    61    1
    39    12    11    1
    40    42    41   ar
    41    42    40   ar
    42    41    39   ar
    43     8     7    1
    44     8    11    1
    45     8     9    1
    46    11    13    1
    47    40    38   ar
    48    74    73    2
    49    39    37   ar
    50    10     9    2
    51     6     5    1
    52    76    75    1
    53    73    72    1
    54    38    37   ar
    55    37    36    1
    56    70    68    1
    57     3     4    2
    58     3     2    1
    59    35    34    2
    60    72    75    1
    61    72    71    1
    62    69    68    1
    63    34    33    1
    64     5     2    1
    65     2     1    1
    66    68    67    1
    67    31    30   ar
    68    31    29   ar
    69    36    33    1
    70    30    28   ar
    71    33    32    1
    72    29    27   ar
    73    67    64    1
    74    64    63    1
    75    64    65    1
    76    28    27   ar
    77    27    26    1
    78    66    65    2
    79    26    23    1
    80    24    25    2
    81    24    23    1
    82    23    22    1
