@<TRIPOS>MOLECULE
tmp/1u3vA01.pdb
 100 91 0 0 0
SMALL
GASTEIGER

@<TRIPOS>ATOM
      1  N          5.2070   -8.2470  -25.3410 N.3    46  CYS46      -0.1235
      2  CA         4.8590   -8.1230  -23.9230 C.3    46  CYS46       0.1677
      3  C          3.4330   -8.6330  -23.6680 C.2    46  CYS46       0.2270
      4  O          2.5460   -8.5210  -24.5270 O.2    46  CYS46      -0.2867
      5  CB         4.9890   -6.6560  -23.5020 C.3    46  CYS46       0.0956
      6  SG         4.5380   -6.2920  -21.7900 S.3    46  CYS46      -0.0801
      7  N          1.2240   -7.3860  -22.0530 N.3    48  THR48      -0.1218
      8  CA         0.2720   -6.2730  -22.1330 C.3    48  THR48       0.1862
      9  C         -0.3650   -6.1590  -23.5270 C.2    48  THR48       0.2287
     10  O         -1.5630   -5.8580  -23.6500 O.2    48  THR48      -0.2866
     11  CB         0.9400   -4.9460  -21.7240 C.3    48  THR48       0.1770
     12  OG1        1.2750   -5.0270  -20.3360 O.3    48  THR48      -0.2211
     13  CG2        0.0070   -3.7910  -21.9250 C.3    48  THR48       0.0375
     14  N         -7.7470   -6.2500  -21.5330 N.3    57  LEU57      -0.1245
     15  CA        -7.4320   -4.8370  -21.4340 C.3    57  LEU57       0.1561
     16  C         -8.2120   -4.1220  -22.5370 C.2    57  LEU57       0.2260
     17  O         -8.0330   -4.4110  -23.7150 O.2    57  LEU57      -0.2867
     18  CB        -5.9250   -4.6110  -21.6380 C.3    57  LEU57       0.0270
     19  CG        -5.4630   -3.1520  -21.6030 C.3    57  LEU57       0.0019
     20  CD1       -5.8020   -2.5250  -20.2550 C.3    57  LEU57       0.0001
     21  CD2       -3.9520   -3.0820  -21.8590 C.3    57  LEU57       0.0001
     22  N          4.6310   -1.8390  -27.9120 N.3    67  HIS67      -0.1241
     23  CA         5.1040   -0.7260  -27.0980 C.3    67  HIS67       0.1621
     24  C          6.5200   -0.8940  -26.5560 C.2    67  HIS67       0.2264
     25  O          7.1270    0.0790  -26.1310 O.2    67  HIS67      -0.2867
     26  CB         4.1290   -0.4700  -25.9480 C.3    67  HIS67       0.0745
     27  CG         4.0030   -1.6280  -25.0090 C.ar   67  HIS67       0.0817
     28  ND1        3.2400   -2.7360  -25.3010 N.ar   67  HIS67      -0.2268
     29  CD2        4.5940   -1.8760  -23.8210 C.ar   67  HIS67       0.1154
     30  CE1        3.3630   -3.6220  -24.3290 C.ar   67  HIS67       0.1986
     31  NE2        4.1820   -3.1260  -23.4190 N.ar   67  HIS67      -0.2212
     32  N          5.8700    3.8790  -23.0790 N.3    93  PHE93      -0.1241
     33  CA         4.4180    3.6840  -22.9330 C.3    93  PHE93       0.1605
     34  C          3.7440    4.6630  -21.9820 C.2    93  PHE93       0.2264
     35  O          2.5090    4.7880  -21.9730 O.2    93  PHE93      -0.2867
     36  CB         4.0410    2.2090  -22.6590 C.3    93  PHE93       0.0534
     37  CG         4.2510    1.7600  -21.2330 C.ar   93  PHE93      -0.0203
     38  CD1        5.4260    1.1240  -20.8540 C.ar   93  PHE93      -0.0042
     39  CD2        3.2660    1.9800  -20.2730 C.ar   93  PHE93      -0.0042
     40  CE1        5.6250    0.7160  -19.5310 C.ar   93  PHE93      -0.0003
     41  CE2        3.4520    1.5800  -18.9490 C.ar   93  PHE93      -0.0003
     42  CZ         4.6450    0.9440  -18.5790 C.ar   93  PHE93      -0.0000
     43  N         -1.9930    7.6190  -21.8900 N.3   115  ASP115     -0.1225
     44  CA        -3.2080    7.1360  -22.5480 C.3   115  ASP115      0.1805
     45  C         -3.4770    5.7480  -21.9610 C.2   115  ASP115      0.2597
     46  O         -3.8960    4.8250  -22.6660 O.2   115  ASP115     -0.2718
     47  CB        -3.0300    7.0220  -24.0620 C.3   115  ASP115      0.1424
     48  CG        -4.3550    6.7860  -24.7770 C.2   115  ASP115      0.3668
     49  OD1       -5.3460    7.4530  -24.3870 O.co2 115  ASP115     -0.2456
     50  OD2       -4.4180    5.9380  -25.7020 O.co2 115  ASP115     -0.2456
     51  N         -3.2790    5.6270  -20.6500 N.am  116  LEU116     -0.1979
     52  CA        -3.4400    4.3530  -19.9540 C.3   116  LEU116      0.1596
     53  C         -4.7650    4.1670  -19.2180 C.2   116  LEU116      0.2287
     54  O         -5.3970    3.1250  -19.3540 O.2   116  LEU116     -0.2864
     55  CB        -2.2770    4.1360  -18.9750 C.3   116  LEU116      0.0297
     56  CG        -0.8810    4.3920  -19.5530 C.3   116  LEU116      0.0022
     57  CD1        0.2150    4.1630  -18.5030 C.3   116  LEU116      0.0001
     58  CD2       -0.6650    3.4840  -20.7370 C.3   116  LEU116      0.0001
     59  N         -8.1550    4.9000  -22.1260 N.3   119  PRO119     -0.2116
     60  CA        -7.5440    5.0530  -23.4510 C.3   119  PRO119      0.1372
     61  C         -8.3980    5.6150  -24.5680 C.2   119  PRO119      0.2244
     62  O         -9.5370    5.1740  -24.7740 O.2   119  PRO119     -0.2868
     63  CB        -7.0940    3.6340  -23.8050 C.3   119  PRO119      0.0268
     64  CG        -7.0960    2.8860  -22.5080 C.3   119  PRO119      0.0207
     65  CD        -8.2240    3.4810  -21.7370 C.3   119  PRO119      0.0892
     66  N         -1.1620    2.9520  -26.3360 N.3   141  LEU141     -0.1245
     67  CA        -0.2690    3.4830  -25.2920 C.3   141  LEU141      0.1561
     68  C          0.6210    4.5960  -25.8370 C.2   141  LEU141      0.2260
     69  O          1.7260    4.8240  -25.3530 O.2   141  LEU141     -0.2867
     70  CB         0.5940    2.3620  -24.6760 C.3   141  LEU141      0.0270
     71  CG        -0.1370    1.0880  -24.2330 C.3   141  LEU141      0.0019
     72  CD1        0.8720    0.1120  -23.6050 C.3   141  LEU141      0.0001
     73  CD2       -1.2250    1.4240  -23.2520 C.3   141  LEU141      0.0001
     74  N         10.2170   -1.5260  -21.8470 N.3   174  CYS174     -0.1235
     75  CA         9.0930   -1.9010  -21.0090 C.3   174  CYS174      0.1677
     76  C          9.3810   -2.9720  -19.9670 C.2   174  CYS174      0.2270
     77  O          9.5190   -2.6740  -18.7990 O.2   174  CYS174     -0.2867
     78  CB         7.8690   -2.3320  -21.8270 C.3   174  CYS174      0.0956
     79  SG         6.4860   -2.7350  -20.6800 S.3   174  CYS174     -0.0801
     80  N          2.2480   -5.5180   -9.9760 N.3   292  VAL292     -0.1245
     81  CA         2.8840   -5.1660  -11.2400 C.3   292  VAL292      0.1561
     82  C          2.0130   -5.6770  -12.3890 C.2   292  VAL292      0.2260
     83  O          1.8330   -4.9870  -13.3950 O.2   292  VAL292     -0.2867
     84  CB         4.3240   -5.7800  -11.3780 C.3   292  VAL292      0.0252
     85  CG1        4.9570   -5.2830  -12.6740 C.3   292  VAL292      0.0019
     86  CG2        5.1950   -5.3990  -10.1890 C.3   292  VAL292      0.0019
     87  N         -1.1070   -6.6170  -14.8030 N.3   294  VAL294     -0.1245
     88  CA        -2.3170   -5.8730  -15.1880 C.3   294  VAL294      0.1561
     89  C         -3.5140   -6.8160  -15.0450 C.2   294  VAL294      0.2260
     90  O         -3.5970   -7.8200  -15.7440 O.2   294  VAL294     -0.2867
     91  CB        -2.2230   -5.3770  -16.6480 C.3   294  VAL294      0.0252
     92  CG1       -3.5520   -4.7770  -17.0770 C.3   294  VAL294      0.0019
     93  CG2       -1.1250   -4.3270  -16.7850 C.3   294  VAL294      0.0019
     94  N          3.4420    1.7190  -12.5360 N.3   318  VAL318     -0.1245
     95  CA         3.7220    1.3850  -13.9200 C.3   318  VAL318      0.1561
     96  C          5.2070    1.6750  -14.1410 C.2   318  VAL318      0.2260
     97  O          5.8140    2.4940  -13.4250 O.2   318  VAL318     -0.2867
     98  CB         2.9070    2.2110  -14.9820 C.3   318  VAL318      0.0252
     99  CG1        1.4300    1.8910  -14.8970 C.3   318  VAL318      0.0019
    100  CG2        3.1930    3.7120  -14.8810 C.3   318  VAL318      0.0019
@<TRIPOS>BOND
     1    22    23    1
     2    23    24    1
     3    23    26    1
     4    24    25    2
     5    66    67    1
     6    26    27    1
     7    68    69    2
     8    68    67    1
     9    50    48   ar
    10     1     2    1
    11    28    27   ar
    12    28    30   ar
    13    67    70    1
    14    27    29   ar
    15    48    49   ar
    16    48    47    1
    17    62    61    2
    18    70    71    1
    19    61    60    1
    20     4     3    2
    21    30    31   ar
    22    71    72    1
    23    71    73    1
    24    47    44    1
    25     2     3    1
    26     2     5    1
    27    29    31   ar
    28    63    60    1
    29    63    64    1
    30    17    16    2
    31    10     9    2
    32     9     8    1
    33     5     6    1
    34    60    59    1
    35    32    33    1
    36    33    36    1
    37    33    34    1
    38    46    45    2
    39    36    37    1
    40    44    45    1
    41    44    43    1
    42    16    15    1
    43    64    65    1
    44     8     7    1
    45     8    11    1
    46    59    65    1
    47    34    35    2
    48    45    51   am
    49    13    11    1
    50    21    19    1
    51    74    75    1
    52    78    75    1
    53    78    79    1
    54    11    12    1
    55    18    19    1
    56    18    15    1
    57    19    20    1
    58    14    15    1
    59    37    38   ar
    60    37    39   ar
    61    75    76    1
    62    38    40   ar
    63    58    56    1
    64    51    52    1
    65    39    41   ar
    66    76    77    2
    67    52    53    1
    68    52    55    1
    69    56    55    1
    70    56    57    1
    71    40    42   ar
    72    54    53    2
    73    41    42   ar
    74    92    91    1
    75    93    91    1
    76    91    88    1
    77    90    89    2
    78    88    89    1
    79    88    87    1
    80    98    99    1
    81    98   100    1
    82    98    95    1
    83    96    95    1
    84    96    97    2
    85    95    94    1
    86    83    82    2
    87    85    84    1
    88    82    81    1
    89    84    81    1
    90    84    86    1
    91    81    80    1
