@<TRIPOS>MOLECULE
tmp/1u40A00.pdb
 125 124 0 0 0
SMALL
GASTEIGER

@<TRIPOS>ATOM
      1  N         18.4430   24.1460   12.3030 N.3     8  ASP8       -0.1225
      2  CA        17.8560   24.3740   10.9790 C.3     8  ASP8        0.1805
      3  C         17.8290   23.1230   10.1160 C.2     8  ASP8        0.2598
      4  O         18.5830   22.1840   10.3520 O.2     8  ASP8       -0.2718
      5  CB        18.5770   25.5010   10.2530 C.3     8  ASP8        0.1424
      6  CG        17.8000   26.0280    9.0570 C.2     8  ASP8        0.3668
      7  OD1       18.4530   26.5360    8.1310 O.co2   8  ASP8       -0.2456
      8  OD2       16.5520   25.9620    9.0300 O.co2   8  ASP8       -0.2456
      9  N         16.9400   23.1060    9.1310 N.am    9  VAL9       -0.1966
     10  CA        16.7720   21.9680    8.2320 C.3     9  VAL9        0.1727
     11  C         16.3780   22.4710    6.8530 C.2     9  VAL9        0.2616
     12  O         15.6960   23.4870    6.7300 O.2     9  VAL9       -0.2715
     13  CB        15.6210   21.0580    8.7270 C.3     9  VAL9        0.0290
     14  CG1       15.2690   20.0010    7.6950 C.3     9  VAL9        0.0023
     15  CG2       15.9910   20.4120   10.0310 C.3     9  VAL9        0.0023
     16  N         16.8700   21.8130    5.8110 N.am   10  HIS10      -0.1973
     17  CA        16.5030   22.1590    4.4350 C.3    10  HIS10       0.1656
     18  C         16.3440   20.8780    3.6400 C.2    10  HIS10       0.2291
     19  O         17.0770   19.9010    3.8460 O.2    10  HIS10      -0.2864
     20  CB        17.4910   23.1210    3.7870 C.3    10  HIS10       0.0771
     21  CG        17.3160   24.5310    4.2440 C.ar   10  HIS10       0.0820
     22  ND1       16.2900   25.3330    3.7960 N.ar   10  HIS10      -0.2267
     23  CD2       17.9740   25.2540    5.1840 C.ar   10  HIS10       0.1154
     24  CE1       16.3220   26.4870    4.4420 C.ar   10  HIS10       0.1986
     25  NE2       17.3360   26.4670    5.2920 N.ar   10  HIS10      -0.2212
     26  N         14.9080   29.7190    0.0380 N.3    34  HIS34      -0.1226
     27  CA        14.7410   31.1310   -0.3730 C.3    34  HIS34       0.1752
     28  C         16.1710   31.6490   -0.5520 C.2    34  HIS34       0.2596
     29  O         16.5360   32.1170   -1.6280 O.2    34  HIS34      -0.2718
     30  CB        14.0000   31.9070    0.7510 C.3    34  HIS34       0.0759
     31  CG        13.8730   33.4010    0.5460 C.ar   34  HIS34       0.0818
     32  ND1       13.2550   33.9690   -0.5520 N.ar   34  HIS34      -0.2268
     33  CD2       14.1810   34.4350    1.3730 C.ar   34  HIS34       0.1154
     34  CE1       13.1800   35.2810   -0.3880 C.ar   34  HIS34       0.1986
     35  NE2       13.7330   35.5880    0.7720 N.ar   34  HIS34      -0.2212
     36  N         16.9730   31.5110    0.5060 N.am   35  SER35      -0.1952
     37  CA        18.3760   31.9210    0.5250 C.3    35  SER35       0.1924
     38  C         19.1530   30.8570   -0.2450 C.2    35  SER35       0.2314
     39  O         18.6120   30.2110   -1.1390 O.2    35  SER35      -0.2863
     40  CB        18.8650   31.9590    1.9800 C.3    35  SER35       0.2116
     41  OG        18.8150   30.6580    2.5700 O.3    35  SER35      -0.2180
     42  N         22.7690   28.9750    8.8220 N.3    42  HIS42      -0.1241
     43  CA        21.5230   29.4590    9.4030 C.3    42  HIS42       0.1621
     44  C         21.5490   29.0280   10.8480 C.2    42  HIS42       0.2264
     45  O         21.3980   29.8460   11.7390 O.2    42  HIS42      -0.2867
     46  CB        20.2940   28.8540    8.7440 C.3    42  HIS42       0.0745
     47  CG        20.0330   29.3630    7.3650 C.ar   42  HIS42       0.0817
     48  ND1       18.9470   28.9560    6.6130 N.ar   42  HIS42      -0.2268
     49  CD2       20.7270   30.2390    6.6000 C.ar   42  HIS42       0.1154
     50  CE1       18.9910   29.5690    5.4400 C.ar   42  HIS42       0.1986
     51  NE2       20.0590   30.3500    5.4090 N.ar   42  HIS42      -0.2212
     52  N         16.0450   35.6780   16.1070 N.3    56  ASP56      -0.1225
     53  CA        16.4680   34.6750   15.1450 C.3    56  ASP56       0.1805
     54  C         16.6330   35.2660   13.7350 C.2    56  ASP56       0.2598
     55  O         16.2330   36.4050   13.4690 O.2    56  ASP56      -0.2718
     56  CB        15.4890   33.4900   15.1440 C.3    56  ASP56       0.1424
     57  CG        14.0940   33.8610   14.6530 C.2    56  ASP56       0.3668
     58  OD1       13.9990   34.6870   13.7240 O.co2  56  ASP56      -0.2456
     59  OD2       13.0900   33.3100   15.1690 O.co2  56  ASP56      -0.2456
     60  N         17.1520   34.4550   12.8200 N.am   57  ILE57      -0.1966
     61  CA        17.4180   34.8600   11.4470 C.3    57  ILE57       0.1727
     62  C         16.1650   35.3470   10.7160 C.2    57  ILE57       0.2617
     63  O         16.1820   36.4050   10.0930 O.2    57  ILE57      -0.2715
     64  CB        18.1510   33.7140   10.6720 C.3    57  ILE57       0.0290
     65  CG1       18.9250   34.2770    9.4990 C.3    57  ILE57       0.0022
     66  CG2       17.1850   32.6530   10.1730 C.3    57  ILE57       0.0023
     67  CD1       19.5770   33.2050    8.6870 C.3    57  ILE57       0.0001
     68  N         15.0580   34.6330   10.8820 N.am   58  GLY58      -0.1940
     69  CA        13.8220   35.0100   10.2200 C.3    58  GLY58       0.2014
     70  C         13.2050   36.2890   10.7520 C.2    58  GLY58       0.2638
     71  O         12.2120   36.7790   10.2180 O.2    58  GLY58      -0.2714
     72  N         13.7360   36.7900   11.8550 N.am   59  LYS59      -0.1977
     73  CA        13.2290   38.0240   12.4230 C.3    59  LYS59       0.1596
     74  C         13.9850   39.1460   11.7470 C.2    59  LYS59       0.2287
     75  O         13.3800   40.0610   11.2100 O.2    59  LYS59      -0.2864
     76  CB        13.4570   38.0710   13.9360 C.3    59  LYS59       0.0298
     77  CG        13.0140   39.3650   14.5970 C.3    59  LYS59       0.0038
     78  CD        13.3960   39.3780   16.0620 C.3    59  LYS59       0.0206
     79  CE        13.7790   40.7820   16.5260 C.3    59  LYS59       0.1093
     80  NZ        14.4010   40.7840   17.8910 N.3    59  LYS59      -0.1314
     81  N         16.0000   38.9630    8.9520 N.3    61  PHE61      -0.1228
     82  CA        15.9200   38.8900    7.5000 C.3    61  PHE61       0.1721
     83  C         14.7610   37.9910    7.0770 C.2    61  PHE61       0.2437
     84  O         14.9540   36.8080    6.8030 O.2    61  PHE61      -0.2733
     85  CB        17.2340   38.3410    6.9230 C.3    61  PHE61       0.0547
     86  CG        18.4540   38.7260    7.7100 C.ar   61  PHE61      -0.0202
     87  CD1       18.8830   40.0410    7.7560 C.ar   61  PHE61      -0.0042
     88  CD2       19.1440   37.7720    8.4490 C.ar   61  PHE61      -0.0042
     89  CE1       19.9770   40.4030    8.5330 C.ar   61  PHE61      -0.0003
     90  CE2       20.2410   38.1230    9.2310 C.ar   61  PHE61      -0.0003
     91  CZ        20.6580   39.4420    9.2750 C.ar   61  PHE61      -0.0000
     92  N         13.5450   38.5530    6.9870 N.am   62  PRO62      -0.2718
     93  CA        12.3130   37.8600    6.6010 C.3    62  PRO62       0.1535
     94  C         12.3890   36.8980    5.4170 C.2    62  PRO62       0.2598
     95  O         12.8150   37.2560    4.3130 O.2    62  PRO62      -0.2715
     96  CB        11.3600   39.0120    6.3120 C.3    62  PRO62       0.0310
     97  CG        11.7330   39.9800    7.3600 C.3    62  PRO62       0.0237
     98  CD        13.2540   39.9620    7.3020 C.3    62  PRO62       0.0939
     99  N         11.8910   35.6900    5.6620 N.am   63  ASP63      -0.1972
    100  CA        11.8390   34.6170    4.6710 C.3    63  ASP63       0.1709
    101  C         11.0800   35.1180    3.4310 C.2    63  ASP63       0.2293
    102  O         11.4370   34.8110    2.2880 O.2    63  ASP63      -0.2864
    103  CB        11.1050   33.4140    5.2920 C.3    63  ASP63       0.1436
    104  CG        11.5850   32.0740    4.7490 C.2    63  ASP63       0.3671
    105  OD1       12.8100   31.8860    4.5830 O.co2  63  ASP63      -0.2456
    106  OD2       10.7330   31.1910    4.5180 O.co2  63  ASP63      -0.2456
    107  N         16.2120   38.7110   -0.0040 N.3    68  PHE68      -0.1241
    108  CA        16.9360   37.5720    0.5360 C.3    68  PHE68       0.1605
    109  C         16.7780   36.3540   -0.3590 C.2    68  PHE68       0.2264
    110  O         17.1680   35.2470    0.0190 O.2    68  PHE68      -0.2867
    111  CB        16.4240   37.2480    1.9350 C.3    68  PHE68       0.0534
    112  CG        16.2550   38.4490    2.7960 C.ar   68  PHE68      -0.0203
    113  CD1       15.0870   38.6420    3.5090 C.ar   68  PHE68      -0.0042
    114  CD2       17.2560   39.4110    2.8700 C.ar   68  PHE68      -0.0042
    115  CE1       14.9120   39.7840    4.2890 C.ar   68  PHE68      -0.0003
    116  CE2       17.0910   40.5570    3.6460 C.ar   68  PHE68      -0.0003
    117  CZ        15.9140   40.7440    4.3580 C.ar   68  PHE68      -0.0000
    118  N         24.1340   37.2020    5.5010 N.3    76  LEU76      -0.1245
    119  CA        23.2540   37.3020    6.6500 C.3    76  LEU76       0.1561
    120  C         24.0590   37.0800    7.9160 C.2    76  LEU76       0.2260
    121  O         23.8740   37.7840    8.8980 O.2    76  LEU76      -0.2867
    122  CB        22.1380   36.2710    6.5680 C.3    76  LEU76       0.0270
    123  CG        21.3120   36.2920    5.2820 C.3    76  LEU76       0.0019
    124  CD1       20.1190   35.3760    5.4460 C.3    76  LEU76       0.0001
    125  CD2       20.8370   37.7010    4.9850 C.3    76  LEU76       0.0001
@<TRIPOS>BOND
     1    29    28    2
     2    39    38    2
     3    28    27    1
     4    28    36   am
     5    32    34   ar
     6    32    31   ar
     7    34    35   ar
     8    27    26    1
     9    27    30    1
    10   109   110    2
    11   109   108    1
    12    38    37    1
    13   107   108    1
    14    36    37    1
    15    37    40    1
    16   108   111    1
    17    31    30    1
    18    31    33   ar
    19    35    33   ar
    20   111   112    1
    21    40    41    1
    22   102   101    2
    23   112   114   ar
    24   112   113   ar
    25   114   116   ar
    26   101   100    1
    27   113   115   ar
    28    18    19    2
    29    18    17    1
    30   116   117   ar
    31    20    21    1
    32    20    17    1
    33    22    21   ar
    34    22    24   ar
    35    21    23   ar
    36   115   117   ar
    37    95    94    2
    38    17    16    1
    39    24    25   ar
    40   106   104   ar
    41   105   104   ar
    42   100   103    1
    43   100    99    1
    44   104   103    1
    45   125   123    1
    46    23    25   ar
    47   123   124    1
    48   123   122    1
    49    51    50   ar
    50    51    49   ar
    51    94    99   am
    52    94    93    1
    53    50    48   ar
    54   118   119    1
    55    16    11   am
    56    96    93    1
    57    96    97    1
    58   122   119    1
    59    49    47   ar
    60    93    92    1
    61    48    47   ar
    62   119   120    1
    63    12    11    2
    64    84    83    2
    65    11    10    1
    66    85    82    1
    67    85    86    1
    68    92    83   am
    69    92    98    1
    70    83    82    1
    71    98    97    1
    72    47    46    1
    73    82    81    1
    74    14    13    1
    75    86    87   ar
    76    86    88   ar
    77    87    89   ar
    78   120   121    2
    79     7     6   ar
    80    10    13    1
    81    10     9    1
    82    88    90   ar
    83    89    91   ar
    84    67    65    1
    85    13    15    1
    86    46    43    1
    87    42    43    1
    88     8     6   ar
    89     6     5    1
    90     9     3   am
    91    90    91   ar
    92    43    44    1
    93    65    64    1
    94    63    62    2
    95     3     4    2
    96     3     2    1
    97    66    64    1
    98    71    70    2
    99    69    70    1
   100    69    68    1
   101     5     2    1
   102    64    61    1
   103    62    68   am
   104    62    61    1
   105    70    72   am
   106    44    45    2
   107     2     1    1
   108    75    74    2
   109    61    60    1
   110    74    73    1
   111    72    73    1
   112    73    76    1
   113    60    54   am
   114    55    54    2
   115    58    57   ar
   116    54    53    1
   117    76    77    1
   118    77    78    1
   119    57    56    1
   120    57    59   ar
   121    56    53    1
   122    53    52    1
   123    78    79    1
   124    79    80    1
