@<TRIPOS>MOLECULE
tmp/1u43A00.pdb
 142 140 0 0 0
SMALL
GASTEIGER

@<TRIPOS>ATOM
      1  N         19.3110   26.0380   15.1020 N.3     7  PHE7       -0.1227
      2  CA        18.9310   24.8050   14.4270 C.3     7  PHE7        0.1736
      3  C         18.2180   25.1190   13.1290 C.2     7  PHE7        0.2595
      4  O         17.3110   25.9560   13.1180 O.2     7  PHE7       -0.2718
      5  CB        17.9810   24.0130   15.3250 C.3     7  PHE7        0.0547
      6  CG        17.4030   22.7970   14.6800 C.ar    7  PHE7       -0.0202
      7  CD1       18.0320   21.5720   14.7900 C.ar    7  PHE7       -0.0042
      8  CD2       16.2270   22.8670   13.9610 C.ar    7  PHE7       -0.0042
      9  CE1       17.4930   20.4230   14.1860 C.ar    7  PHE7       -0.0003
     10  CE2       15.6870   21.7240   13.3550 C.ar    7  PHE7       -0.0003
     11  CZ        16.3240   20.5020   13.4690 C.ar    7  PHE7       -0.0000
     12  N         18.6140   24.4510   12.0470 N.am    8  ASP8       -0.1974
     13  CA        17.9640   24.6370   10.7480 C.3     8  ASP8        0.1709
     14  C         17.8770   23.3060    9.9710 C.2     8  ASP8        0.2293
     15  O         18.5700   22.3300   10.2920 O.2     8  ASP8       -0.2864
     16  CB        18.6660   25.7220    9.9090 C.3     8  ASP8        0.1436
     17  CG        17.7480   26.3170    8.8110 C.2     8  ASP8        0.3671
     18  OD1       18.2600   26.7820    7.7600 O.co2   8  ASP8       -0.2456
     19  OD2       16.5060   26.3230    8.9970 O.co2   8  ASP8       -0.2456
     20  N         16.7670   21.8120    5.7540 N.3    10  HIS10      -0.1241
     21  CA        16.4380   22.1820    4.3780 C.3    10  HIS10       0.1621
     22  C         16.2560   20.9240    3.5740 C.2    10  HIS10       0.2264
     23  O         17.0110   19.9570    3.7210 O.2    10  HIS10      -0.2867
     24  CB        17.5120   23.0610    3.7300 C.3    10  HIS10       0.0745
     25  CG        17.2730   24.5300    3.9020 C.ar   10  HIS10       0.0817
     26  ND1       16.1720   25.1690    3.3790 N.ar   10  HIS10      -0.2268
     27  CD2       17.9830   25.4810    4.5560 C.ar   10  HIS10       0.1154
     28  CE1       16.2120   26.4490    3.7030 C.ar   10  HIS10       0.1986
     29  NE2       17.3020   26.6650    4.4160 N.ar   10  HIS10      -0.2212
     30  N         15.6950   26.5810   -1.0110 N.3    33  ALA33      -0.1231
     31  CA        15.6580   27.6940   -0.0480 C.3    33  ALA33       0.1694
     32  C         15.5450   29.0800   -0.7060 C.2    33  ALA33       0.2592
     33  O         15.9210   29.2490   -1.8740 O.2    33  ALA33      -0.2718
     34  CB        16.8950   27.6530    0.8530 C.3    33  ALA33       0.0304
     35  N         15.0040   30.0540    0.0380 N.am   34  HIS34      -0.1962
     36  CA        14.8570   31.4350   -0.4530 C.3    34  HIS34       0.1787
     37  C         16.2600   32.0130   -0.5900 C.2    34  HIS34       0.2620
     38  O         16.5560   32.6570   -1.5860 O.2    34  HIS34      -0.2715
     39  CB        13.9670   32.2750    0.5000 C.3    34  HIS34       0.0785
     40  CG        14.0690   33.7710    0.3290 C.ar   34  HIS34       0.0821
     41  ND1       13.7480   34.4250   -0.8440 N.ar   34  HIS34      -0.2267
     42  CD2       14.3640   34.7460    1.2260 C.ar   34  HIS34       0.1154
     43  CE1       13.8320   35.7320   -0.6600 C.ar   34  HIS34       0.1986
     44  NE2       14.2040   35.9530    0.5880 N.ar   34  HIS34      -0.2212
     45  N         17.1150   31.7640    0.4020 N.am   35  SER35      -0.1950
     46  CA        18.4980   32.2310    0.3750 C.3    35  SER35       0.1924
     47  C         19.2600   31.0720   -0.2500 C.2    35  SER35       0.2314
     48  O         18.6580   30.2230   -0.8990 O.2    35  SER35      -0.2863
     49  CB        19.0090   32.4730    1.7990 C.3    35  SER35       0.2116
     50  OG        19.3340   31.2500    2.4560 O.3    35  SER35      -0.2180
     51  N         23.0430   29.1290    8.8150 N.3    42  HIS42      -0.1241
     52  CA        21.8060   29.5990    9.4370 C.3    42  HIS42       0.1621
     53  C         21.8300   29.1180   10.8910 C.2    42  HIS42       0.2264
     54  O         21.6830   29.9040   11.8260 O.2    42  HIS42      -0.2867
     55  CB        20.5630   29.0430    8.7350 C.3    42  HIS42       0.0745
     56  CG        20.3740   29.5500    7.3360 C.ar   42  HIS42       0.0817
     57  ND1       19.3820   29.0770    6.5000 N.ar   42  HIS42      -0.2268
     58  CD2       21.0560   30.4770    6.6200 C.ar   42  HIS42       0.1154
     59  CE1       19.4650   29.6880    5.3300 C.ar   42  HIS42       0.1986
     60  NE2       20.4710   30.5420    5.3770 N.ar   42  HIS42      -0.2212
     61  N         21.5620   31.7370   14.1390 N.3    46  ASP46      -0.1239
     62  CA        20.5610   31.7900   15.1810 C.3    46  ASP46       0.1674
     63  C         21.2010   31.6770   16.5220 C.2    46  ASP46       0.2266
     64  O         20.8970   32.4500   17.4110 O.2    46  ASP46      -0.2867
     65  CB        19.5590   30.6660   15.0440 C.3    46  ASP46       0.1410
     66  CG        18.4060   31.0350   14.1860 C.2    46  ASP46       0.3668
     67  OD1       17.5180   30.1810   13.9810 O.co2  46  ASP46      -0.2456
     68  OD2       18.3870   32.1810   13.7150 O.co2  46  ASP46      -0.2456
     69  N         16.0450   35.7380   16.1900 N.3    56  ASP56      -0.1225
     70  CA        16.5370   34.8040   15.1830 C.3    56  ASP56       0.1805
     71  C         16.6950   35.4300   13.7960 C.2    56  ASP56       0.2598
     72  O         16.2860   36.5630   13.5520 O.2    56  ASP56      -0.2718
     73  CB        15.6560   33.5370   15.1260 C.3    56  ASP56       0.1424
     74  CG        14.3000   33.7600   14.4380 C.2    56  ASP56       0.3668
     75  OD1       13.9160   34.9160   14.1590 O.co2  56  ASP56      -0.2456
     76  OD2       13.6030   32.7540   14.1750 O.co2  56  ASP56      -0.2456
     77  N         17.3010   34.6710   12.8940 N.am   57  ILE57      -0.1966
     78  CA        17.5570   35.0850   11.5220 C.3    57  ILE57       0.1727
     79  C         16.2460   35.4540   10.8450 C.2    57  ILE57       0.2617
     80  O         16.2130   36.3250    9.9910 O.2    57  ILE57      -0.2715
     81  CB        18.2590   33.9360   10.7440 C.3    57  ILE57       0.0290
     82  CG1       18.5960   34.3520    9.3250 C.3    57  ILE57       0.0022
     83  CG2       17.3700   32.7100   10.6750 C.3    57  ILE57       0.0023
     84  CD1       19.1060   33.1920    8.4880 C.3    57  ILE57       0.0001
     85  N         15.1600   34.8340   11.2860 N.am   58  GLY58      -0.1940
     86  CA        13.8610   35.0970   10.7030 C.3    58  GLY58       0.2014
     87  C         13.2790   36.4600   11.0110 C.2    58  GLY58       0.2638
     88  O         12.5730   37.0300   10.1820 O.2    58  GLY58      -0.2714
     89  N         13.5240   36.9800   12.2050 N.am   59  LYS59      -0.1977
     90  CA        13.0050   38.3030   12.5480 C.3    59  LYS59       0.1596
     91  C         13.8240   39.3440   11.7720 C.2    59  LYS59       0.2287
     92  O         13.3160   40.4180   11.4400 O.2    59  LYS59      -0.2864
     93  CB        13.1090   38.5760   14.0720 C.3    59  LYS59       0.0298
     94  CG        12.1920   39.7100   14.6420 C.3    59  LYS59       0.0038
     95  CD        10.7000   39.2730   14.7340 C.3    59  LYS59       0.0206
     96  CE         9.7450   40.3380   15.3470 C.3    59  LYS59       0.1093
     97  NZ         8.3280   39.8440   15.5760 N.3    59  LYS59      -0.1314
     98  N         15.9690   38.6940    8.6080 N.3    61  PHE61      -0.1228
     99  CA        16.1200   38.5710    7.1560 C.3    61  PHE61       0.1721
    100  C         15.0900   37.6340    6.5080 C.2    61  PHE61       0.2437
    101  O         15.4360   36.5520    6.0260 O.2    61  PHE61      -0.2733
    102  CB        17.5460   38.1050    6.8290 C.3    61  PHE61       0.0547
    103  CG        18.6010   38.7080    7.7210 C.ar   61  PHE61      -0.0202
    104  CD1       18.8880   40.0680    7.6660 C.ar   61  PHE61      -0.0042
    105  CD2       19.2730   37.9210    8.6540 C.ar   61  PHE61      -0.0042
    106  CE1       19.8230   40.6320    8.5350 C.ar   61  PHE61      -0.0003
    107  CE2       20.2120   38.4750    9.5280 C.ar   61  PHE61      -0.0003
    108  CZ        20.4870   39.8290    9.4710 C.ar   61  PHE61      -0.0000
    109  N         13.8210   38.0820    6.4290 N.am   62  PRO62      -0.2718
    110  CA        12.6180   37.4360    5.8780 C.3    62  PRO62       0.1535
    111  C         12.6730   36.6070    4.5870 C.2    62  PRO62       0.2598
    112  O         13.3160   36.9810    3.6030 O.2    62  PRO62      -0.2715
    113  CB        11.6620   38.6110    5.7230 C.3    62  PRO62       0.0310
    114  CG        11.9630   39.4040    6.9370 C.3    62  PRO62       0.0237
    115  CD        13.4740   39.4130    6.9650 C.3    62  PRO62       0.0939
    116  N         11.9350   35.4980    4.5960 N.am   63  ASP63      -0.1972
    117  CA        11.8320   34.6110    3.4420 C.3    63  ASP63       0.1709
    118  C         11.1260   35.4200    2.3700 C.2    63  ASP63       0.2293
    119  O         11.4700   35.3500    1.1890 O.2    63  ASP63      -0.2864
    120  CB        10.9510   33.3920    3.7490 C.3    63  ASP63       0.1436
    121  CG        11.3010   32.7220    5.0570 C.2    63  ASP63       0.3671
    122  OD1       10.8440   33.2200    6.1070 O.co2  63  ASP63      -0.2456
    123  OD2       12.0140   31.6960    5.0360 O.co2  63  ASP63      -0.2456
    124  N         16.5290   38.8560   -0.1240 N.3    68  PHE68      -0.1241
    125  CA        17.1500   37.7280    0.5390 C.3    68  PHE68       0.1605
    126  C         17.0680   36.4680   -0.3090 C.2    68  PHE68       0.2264
    127  O         17.3170   35.3650    0.1790 O.2    68  PHE68      -0.2867
    128  CB        16.4970   37.5270    1.9040 C.3    68  PHE68       0.0534
    129  CG        16.3970   38.7940    2.7090 C.ar   68  PHE68      -0.0203
    130  CD1       15.3010   39.0350    3.5250 C.ar   68  PHE68      -0.0042
    131  CD2       17.4020   39.7590    2.6410 C.ar   68  PHE68      -0.0042
    132  CE1       15.2060   40.2180    4.2650 C.ar   68  PHE68      -0.0003
    133  CE2       17.3150   40.9450    3.3780 C.ar   68  PHE68      -0.0003
    134  CZ        16.2140   41.1730    4.1910 C.ar   68  PHE68      -0.0000
    135  N         24.2700   37.3340    5.5750 N.3    76  LEU76      -0.1245
    136  CA        23.3410   37.3500    6.6870 C.3    76  LEU76       0.1561
    137  C         24.1000   37.1510    7.9780 C.2    76  LEU76       0.2260
    138  O         23.9100   37.9000    8.9220 O.2    76  LEU76      -0.2867
    139  CB        22.2780   36.2670    6.5240 C.3    76  LEU76       0.0270
    140  CG        21.3440   36.4880    5.3340 C.3    76  LEU76       0.0019
    141  CD1       20.2860   35.3970    5.2300 C.3    76  LEU76       0.0001
    142  CD2       20.6860   37.8240    5.5160 C.3    76  LEU76       0.0001
@<TRIPOS>BOND
     1    33    32    2
     2    38    37    2
     3    30    31    1
     4    48    47    2
     5    41    43   ar
     6    41    40   ar
     7    32    31    1
     8    32    35   am
     9    43    44   ar
    10    37    36    1
    11    37    45   am
    12    36    35    1
    13    36    39    1
    14   126   127    2
    15   126   125    1
    16    47    46    1
    17   124   125    1
    18    31    34    1
    19    40    39    1
    20    40    42   ar
    21    46    45    1
    22    46    49    1
    23   125   128    1
    24    44    42   ar
    25   119   118    2
    26    49    50    1
    27   128   129    1
    28   118   117    1
    29   131   129   ar
    30   131   133   ar
    31   129   130   ar
    32   133   134   ar
    33    26    28   ar
    34    26    25   ar
    35   117   120    1
    36   117   116    1
    37   130   132   ar
    38    22    23    2
    39    22    21    1
    40   112   111    2
    41    28    29   ar
    42    24    25    1
    43    24    21    1
    44   120   121    1
    45    25    27   ar
    46   134   132   ar
    47    21    20    1
    48    29    27   ar
    49   111   116   am
    50   111   110    1
    51   123   121   ar
    52   121   122   ar
    53   141   140    1
    54    59    60   ar
    55    59    57   ar
    56   140   142    1
    57   140   139    1
    58    60    58   ar
    59   135   136    1
    60   113   110    1
    61   113   114    1
    62   110   109    1
    63   101   100    2
    64   109   100   am
    65   109   115    1
    66    57    56   ar
    67   100    99    1
    68   139   136    1
    69    58    56   ar
    70   136   137    1
    71   102    99    1
    72   102   103    1
    73   114   115    1
    74    99    98    1
    75    56    55    1
    76   104   103   ar
    77   104   106   ar
    78   103   105   ar
    79    18    17   ar
    80   137   138    2
    81    84    82    1
    82   106   108   ar
    83   105   107   ar
    84    55    52    1
    85    17    19   ar
    86    17    16    1
    87    51    52    1
    88    82    81    1
    89    52    53    1
    90   108   107   ar
    91    16    13    1
    92    14    15    2
    93    14    13    1
    94    80    79    2
    95    88    87    2
    96    83    81    1
    97    86    87    1
    98    86    85    1
    99    81    78    1
   100    13    12    1
   101    79    85   am
   102    79    78    1
   103    53    54    2
   104    87    89   am
   105    92    91    2
   106    78    77    1
   107    91    90    1
   108    12     3   am
   109    89    90    1
   110    90    93    1
   111    77    71   am
   112     4     3    2
   113     3     2    1
   114    10    11   ar
   115    10     8   ar
   116    11     9   ar
   117    72    71    2
   118    68    66   ar
   119    71    70    1
   120     8     6   ar
   121    67    66   ar
   122    93    94    1
   123    61    62    1
   124    75    74   ar
   125    76    74   ar
   126    66    65    1
   127     9     7   ar
   128     2     1    1
   129     2     5    1
   130    74    73    1
   131    94    95    1
   132     6     7   ar
   133     6     5    1
   134    95    96    1
   135    65    62    1
   136    73    70    1
   137    62    63    1
   138    70    69    1
   139    96    97    1
   140    63    64    2
