@<TRIPOS>MOLECULE
tmp/1u4lA00.pdb
 85 85 0 0 0
SMALL
GASTEIGER

@<TRIPOS>ATOM
      1  N         15.8920   -0.4460   41.3380 N.3     2  TYR2       -0.1227
      2  CA        15.5000    0.8300   40.7560 C.3     2  TYR2        0.1736
      3  C         14.7590    1.6470   41.8000 C.2     2  TYR2        0.2596
      4  O         14.2990    1.1130   42.8080 O.2     2  TYR2       -0.2718
      5  CB        14.5860    0.6100   39.5460 C.3     2  TYR2        0.0548
      6  CG        14.5140    1.7980   38.6100 C.ar    2  TYR2       -0.0200
      7  CD1       15.5250    2.0340   37.6860 C.ar    2  TYR2       -0.0009
      8  CD2       13.4480    2.6900   38.6580 C.ar    2  TYR2       -0.0009
      9  CE1       15.4780    3.1220   36.8330 C.ar    2  TYR2        0.0417
     10  CE2       13.3930    3.7860   37.8100 C.ar    2  TYR2        0.0417
     11  CZ        14.4130    3.9950   36.8990 C.ar    2  TYR2        0.1957
     12  OH        14.3770    5.0750   36.0490 O.3     2  TYR2       -0.2866
     13  N         14.6450    2.9440   41.5530 N.am    3  SER3       -0.1952
     14  CA        13.9400    3.8230   42.4700 C.3     3  SER3        0.1924
     15  C         12.5070    3.3310   42.6580 C.2     3  SER3        0.2314
     16  O         11.8740    2.8600   41.7100 O.2     3  SER3       -0.2863
     17  CB        13.9180    5.2500   41.9140 C.3     3  SER3        0.2116
     18  OG        13.0390    6.0740   42.6620 O.3     3  SER3       -0.2180
     19  N         10.3070    5.3880   43.7250 N.3     5  ASP5       -0.1225
     20  CA         9.5470    6.6300   43.6180 C.3     5  ASP5        0.1805
     21  C          8.9970    6.6010   42.1930 C.2     5  ASP5        0.2598
     22  O          9.5520    5.9180   41.3310 O.2     5  ASP5       -0.2718
     23  CB        10.4630    7.8490   43.7870 C.3     5  ASP5        0.1424
     24  CG        10.5060    8.3710   45.2210 C.2     5  ASP5        0.3668
     25  OD1       10.2700    7.5830   46.1630 O.co2   5  ASP5       -0.2456
     26  OD2       10.7910    9.5780   45.4030 O.co2   5  ASP5       -0.2456
     27  N          7.9150    7.3250   41.9340 N.am    6  THR6       -0.1939
     28  CA         7.3610    7.3380   40.5860 C.3     6  THR6        0.2028
     29  C          8.3610    7.9170   39.5860 C.2     6  THR6        0.2643
     30  O          9.2170    8.7290   39.9360 O.2     6  THR6       -0.2714
     31  CB         6.0570    8.1610   40.5030 C.3     6  THR6        0.1808
     32  OG1        6.3010    9.5030   40.9460 O.3     6  THR6       -0.2208
     33  CG2        4.9750    7.5170   41.3580 C.3     6  THR6        0.0379
     34  N          8.2350    7.4780   38.3410 N.am    7  THR7       -0.1937
     35  CA         9.0920    7.9180   37.2490 C.3     7  THR7        0.2013
     36  C          8.1770    8.3560   36.1140 C.2     7  THR7        0.2484
     37  O          7.2030    7.6770   35.7970 O.2     7  THR7       -0.2729
     38  CB         9.9810    6.7600   36.7500 C.3     7  THR7        0.1807
     39  OG1       10.6760    6.1840   37.8640 O.3     7  THR7       -0.2208
     40  CG2       10.9980    7.2650   35.7400 C.3     7  THR7        0.0379
     41  N          8.4750    9.5010   35.4870 N.am    8  PRO8       -0.2726
     42  CA         7.6290    9.9730   34.3900 C.3     8  PRO8        0.1402
     43  C          7.8260    9.2450   33.0600 C.2     8  PRO8        0.2269
     44  O          8.9520    8.9760   32.6400 O.2     8  PRO8       -0.2865
     45  CB         7.9860   11.4530   34.3010 C.3     8  PRO8        0.0296
     46  CG         9.4450   11.4550   34.6600 C.3     8  PRO8        0.0237
     47  CD         9.5030   10.5010   35.8340 C.3     8  PRO8        0.0939
     48  N         15.3430   12.8750   28.3340 N.3    28  TYR28      -0.1227
     49  CA        14.7590   11.6530   27.8080 C.3    28  TYR28       0.1736
     50  C         14.1120   10.9210   28.9680 C.2    28  TYR28       0.2596
     51  O         14.6530   10.9040   30.0690 O.2    28  TYR28      -0.2718
     52  CB        15.8300   10.7590   27.1840 C.3    28  TYR28       0.0548
     53  CG        16.4010   11.2740   25.8860 C.ar   28  TYR28      -0.0200
     54  CD1       17.4170   12.2180   25.8750 C.ar   28  TYR28      -0.0009
     55  CD2       15.9240   10.8090   24.6660 C.ar   28  TYR28      -0.0009
     56  CE1       17.9460   12.6840   24.6830 C.ar   28  TYR28       0.0417
     57  CE2       16.4440   11.2700   23.4710 C.ar   28  TYR28       0.0417
     58  CZ        17.4560   12.2060   23.4870 C.ar   28  TYR28       0.1957
     59  OH        17.9830   12.6590   22.3010 O.3    28  TYR28      -0.2866
     60  N         12.9460   10.3310   28.7340 N.am   29  THR29      -0.1939
     61  CA        12.2860    9.5940   29.7980 C.3    29  THR29       0.2028
     62  C         13.0740    8.3130   30.0160 C.2    29  THR29       0.2643
     63  O         13.8030    7.8710   29.1260 O.2    29  THR29      -0.2714
     64  CB        10.8260    9.2610   29.4400 C.3    29  THR29       0.1808
     65  OG1       10.7610    8.7350   28.1110 O.3    29  THR29      -0.2208
     66  CG2        9.9640   10.5110   29.5340 C.3    29  THR29       0.0379
     67  N         12.9350    7.7330   31.2030 N.am   30  SER30      -0.1935
     68  CA        13.6380    6.5070   31.5560 C.3    30  SER30       0.2055
     69  C         13.5030    5.3760   30.5450 C.2    30  SER30       0.2644
     70  O         12.4590    5.2110   29.9200 O.2    30  SER30      -0.2714
     71  CB        13.1530    5.9980   32.9070 C.3    30  SER30       0.2130
     72  OG        13.6670    4.7020   33.1390 O.3    30  SER30      -0.2179
     73  N         14.5660    4.5920   30.4020 N.am   31  GLY31      -0.1939
     74  CA        14.5330    3.4670   29.4870 C.3    31  GLY31       0.2014
     75  C         13.5500    2.4190   29.9810 C.2    31  GLY31       0.2638
     76  O         13.2060    1.4940   29.2490 O.2    31  GLY31      -0.2714
     77  N         13.1050    2.5640   31.2300 N.am   32  LYS32      -0.1977
     78  CA        12.1430    1.6430   31.8390 C.3    32  LYS32       0.1596
     79  C         10.7640    1.8070   31.2000 C.2    32  LYS32       0.2287
     80  O          9.9590    0.8800   31.1870 O.2    32  LYS32      -0.2864
     81  CB        12.0160    1.9220   33.3440 C.3    32  LYS32       0.0298
     82  CG        13.1970    1.4730   34.2110 C.3    32  LYS32       0.0038
     83  CD        13.1620   -0.0220   34.4300 C.3    32  LYS32       0.0206
     84  CE        14.1290   -0.4530   35.5200 C.3    32  LYS32       0.1093
     85  NZ        14.0500   -1.9290   35.7270 N.3    32  LYS32      -0.1314
@<TRIPOS>BOND
     1    59    58    1
     2    57    58   ar
     3    57    55   ar
     4    58    56   ar
     5    55    53   ar
     6    56    54   ar
     7    54    53   ar
     8    53    52    1
     9    52    49    1
    10    49    48    1
    11    49    50    1
    12    65    64    1
    13    60    50   am
    14    60    61    1
    15    50    51    2
    16    63    62    2
    17    76    75    2
    18    64    66    1
    19    64    61    1
    20    74    75    1
    21    74    73    1
    22    61    62    1
    23    70    69    2
    24    75    77   am
    25    62    67   am
    26    73    69   am
    27    69    68    1
    28    80    79    2
    29    79    78    1
    30    67    68    1
    31    77    78    1
    32    68    71    1
    33    78    81    1
    34    44    43    2
    35    71    72    1
    36    43    42    1
    37    81    82    1
    38    82    83    1
    39    45    42    1
    40    45    46    1
    41    42    41    1
    42    83    84    1
    43    46    47    1
    44    41    47    1
    45    41    36   am
    46    84    85    1
    47    40    38    1
    48    37    36    2
    49    12    11    1
    50    36    35    1
    51    38    35    1
    52    38    39    1
    53     9    11   ar
    54     9     7   ar
    55    11    10   ar
    56    35    34    1
    57     7     6   ar
    58    10     8   ar
    59    34    29   am
    60     6     8   ar
    61     6     5    1
    62     5     2    1
    63    29    30    2
    64    29    28    1
    65    31    28    1
    66    31    32    1
    67    31    33    1
    68    28    27    1
    69     2     1    1
    70     2     3    1
    71    22    21    2
    72    13     3   am
    73    13    14    1
    74    16    15    2
    75     3     4    2
    76    17    14    1
    77    17    18    1
    78    27    21   am
    79    21    20    1
    80    14    15    1
    81    20    19    1
    82    20    23    1
    83    23    24    1
    84    24    26   ar
    85    24    25   ar
