@<TRIPOS>MOLECULE
tmp/1u4mA00.pdb
 77 77 0 0 0
SMALL
GASTEIGER

@<TRIPOS>ATOM
      1  N         15.8480   -0.3530   41.2320 N.3     2  TYR2       -0.1227
      2  CA        15.5340    0.9440   40.6440 C.3     2  TYR2        0.1736
      3  C         14.8280    1.7930   41.6950 C.2     2  TYR2        0.2596
      4  O         14.3930    1.2850   42.7250 O.2     2  TYR2       -0.2718
      5  CB        14.6050    0.7610   39.4420 C.3     2  TYR2        0.0548
      6  CG        14.5890    1.9260   38.4810 C.ar    2  TYR2       -0.0200
      7  CD1       15.6210    2.1060   37.5700 C.ar    2  TYR2       -0.0009
      8  CD2       13.5460    2.8450   38.4840 C.ar    2  TYR2       -0.0009
      9  CE1       15.6190    3.1650   36.6860 C.ar    2  TYR2        0.0417
     10  CE2       13.5350    3.9140   37.6030 C.ar    2  TYR2        0.0417
     11  CZ        14.5760    4.0670   36.7060 C.ar    2  TYR2        0.1957
     12  OH        14.5900    5.1230   35.8270 O.3     2  TYR2       -0.2866
     13  N         14.7100    3.0870   41.4340 N.am    3  SER3       -0.1952
     14  CA        14.0270    3.9670   42.3690 C.3     3  SER3        0.1924
     15  C         12.6030    3.4600   42.5950 C.2     3  SER3        0.2314
     16  O         11.9380    3.0120   41.6560 O.2     3  SER3       -0.2863
     17  CB        13.9790    5.3890   41.8080 C.3     3  SER3        0.2116
     18  OG        13.1350    6.2170   42.5900 O.3     3  SER3       -0.2180
     19  N          8.0310    7.3540   41.8430 N.3     6  THR6       -0.1203
     20  CA         7.4800    7.3590   40.4970 C.3     6  THR6        0.1994
     21  C          8.4880    7.9630   39.5210 C.2     6  THR6        0.2619
     22  O          9.3440    8.7700   39.8990 O.2     6  THR6       -0.2717
     23  CB         6.1800    8.1850   40.4030 C.3     6  THR6        0.1784
     24  OG1        6.4220    9.5160   40.8800 O.3     6  THR6       -0.2211
     25  CG2        5.0680    7.5290   41.2160 C.3     6  THR6        0.0376
     26  N          8.3720    7.5570   38.2640 N.am    7  THR7       -0.1939
     27  CA         9.2370    8.0450   37.2010 C.3     7  THR7        0.2013
     28  C          8.3160    8.4530   36.0610 C.2     7  THR7        0.2484
     29  O          7.3730    7.7360   35.7290 O.2     7  THR7       -0.2729
     30  CB        10.1890    6.9350   36.7070 C.3     7  THR7        0.1807
     31  OG1       10.8450    6.3340   37.8330 O.3     7  THR7       -0.2208
     32  CG2       11.2370    7.5190   35.7760 C.3     7  THR7        0.0379
     33  N          8.5730    9.6130   35.4440 N.am    8  PRO8       -0.2726
     34  CA         7.7090   10.0440   34.3470 C.3     8  PRO8        0.1402
     35  C          7.8850    9.2800   33.0350 C.2     8  PRO8        0.2269
     36  O          9.0040    8.9810   32.6120 O.2     8  PRO8       -0.2865
     37  CB         8.0520   11.5240   34.2090 C.3     8  PRO8        0.0296
     38  CG         9.5200   11.5490   34.5630 C.3     8  PRO8        0.0237
     39  CD         9.5740   10.6470   35.7760 C.3     8  PRO8        0.0939
     40  N         15.4430   12.8890   28.2490 N.3    28  TYR28      -0.1227
     41  CA        14.8530   11.6790   27.7070 C.3    28  TYR28       0.1736
     42  C         14.1980   10.9630   28.8790 C.2    28  TYR28       0.2596
     43  O         14.7310   10.9650   29.9860 O.2    28  TYR28      -0.2718
     44  CB        15.9220   10.7740   27.0880 C.3    28  TYR28       0.0548
     45  CG        16.2860   11.1080   25.6570 C.ar   28  TYR28      -0.0200
     46  CD1       17.2510   12.0630   25.3610 C.ar   28  TYR28      -0.0009
     47  CD2       15.6660   10.4560   24.5990 C.ar   28  TYR28      -0.0009
     48  CE1       17.5900   12.3570   24.0470 C.ar   28  TYR28       0.0417
     49  CE2       15.9950   10.7410   23.2880 C.ar   28  TYR28       0.0417
     50  CZ        16.9560   11.6890   23.0170 C.ar   28  TYR28       0.1957
     51  OH        17.2830   11.9570   21.7080 O.3    28  TYR28      -0.2866
     52  N         13.0320   10.3760   28.6540 N.am   29  THR29      -0.1939
     53  CA        12.3750    9.6540   29.7290 C.3    29  THR29       0.2028
     54  C         13.1800    8.3790   29.9580 C.2    29  THR29       0.2643
     55  O         13.9180    7.9470   29.0760 O.2    29  THR29      -0.2714
     56  CB        10.9280    9.3040   29.3640 C.3    29  THR29       0.1808
     57  OG1       10.8830    8.7900   28.0320 O.3    29  THR29      -0.2208
     58  CG2       10.0440   10.5440   29.4530 C.3    29  THR29       0.0379
     59  N         13.0480    7.7990   31.1470 N.am   30  SER30      -0.1935
     60  CA        13.7580    6.5750   31.5060 C.3    30  SER30       0.2055
     61  C         13.5750    5.4380   30.5020 C.2    30  SER30       0.2644
     62  O         12.5040    5.2870   29.9190 O.2    30  SER30      -0.2714
     63  CB        13.2900    6.0920   32.8760 C.3    30  SER30       0.2130
     64  OG        13.7730    4.7890   33.1320 O.3    30  SER30      -0.2179
     65  N         14.6240    4.6360   30.3210 N.am   31  GLY31      -0.1939
     66  CA        14.5530    3.5070   29.4040 C.3    31  GLY31       0.2014
     67  C         13.5940    2.4410   29.9160 C.2    31  GLY31       0.2638
     68  O         13.2570    1.4950   29.2050 O.2    31  GLY31      -0.2714
     69  N         13.1580    2.5980   31.1620 N.am   32  LYS32      -0.1977
     70  CA        12.2150    1.6690   31.7810 C.3    32  LYS32       0.1596
     71  C         10.8310    1.8320   31.1640 C.2    32  LYS32       0.2287
     72  O         10.0280    0.9030   31.1740 O.2    32  LYS32      -0.2864
     73  CB        12.1110    1.9370   33.2850 C.3    32  LYS32       0.0298
     74  CG        13.2930    1.4510   34.1200 C.3    32  LYS32       0.0038
     75  CD        13.2390   -0.0480   34.3090 C.3    32  LYS32       0.0206
     76  CE        14.2070   -0.5030   35.3920 C.3    32  LYS32       0.1093
     77  NZ        14.0910   -1.9690   35.6270 N.3    32  LYS32      -0.1314
@<TRIPOS>BOND
     1    51    50    1
     2    50    49   ar
     3    50    48   ar
     4    49    47   ar
     5    48    46   ar
     6    47    45   ar
     7    46    45   ar
     8    45    44    1
     9    44    41    1
    10    41    40    1
    11    41    42    1
    12    57    56    1
    13    52    42   am
    14    52    53    1
    15    42    43    2
    16    55    54    2
    17    68    67    2
    18    56    58    1
    19    56    53    1
    20    66    67    1
    21    66    65    1
    22    53    54    1
    23    67    69   am
    24    62    61    2
    25    54    59   am
    26    65    61   am
    27    61    60    1
    28    59    60    1
    29    69    70    1
    30    71    72    2
    31    71    70    1
    32    60    63    1
    33    70    73    1
    34    36    35    2
    35    63    64    1
    36    35    34    1
    37    73    74    1
    38    74    75    1
    39    37    34    1
    40    37    38    1
    41    75    76    1
    42    34    33    1
    43    38    39    1
    44    76    77    1
    45    33    39    1
    46    33    28   am
    47    29    28    2
    48    32    30    1
    49    12    11    1
    50    28    27    1
    51     9    11   ar
    52     9     7   ar
    53    11    10   ar
    54    30    27    1
    55    30    31    1
    56    27    26    1
    57     7     6   ar
    58    10     8   ar
    59    26    21   am
    60     6     8   ar
    61     6     5    1
    62     5     2    1
    63    21    22    2
    64    21    20    1
    65    23    20    1
    66    23    24    1
    67    23    25    1
    68    20    19    1
    69     2     1    1
    70     2     3    1
    71    13     3   am
    72    13    14    1
    73    16    15    2
    74     3     4    2
    75    17    14    1
    76    17    18    1
    77    14    15    1
