@<TRIPOS>MOLECULE
tmp/1u4oA00.pdb
 108 102 0 0 0
SMALL
GASTEIGER

@<TRIPOS>ATOM
      1  N         38.5990   17.6420    9.3570 N.3    12  GLY12      -0.1210
      2  CA        38.3390   16.9170    8.1250 C.3    12  GLY12       0.1956
      3  C         38.3680   17.8510    6.9220 C.2    12  GLY12       0.2612
      4  O         39.0090   18.9010    6.9450 O.2    12  GLY12      -0.2717
      5  N         37.6470   17.4920    5.8690 N.am   13  MET13      -0.1965
      6  CA        37.7310   18.2550    4.6370 C.3    13  MET13       0.1736
      7  C         37.2330   19.6890    4.8420 C.2    13  MET13       0.2616
      8  O         37.8630   20.6450    4.4120 O.2    13  MET13      -0.2715
      9  CB        36.9690   17.5350    3.5180 C.3    13  MET13       0.0427
     10  CG        37.5060   16.1590    3.2220 C.3    13  MET13       0.0599
     11  SD        39.2860   16.1300    2.8850 S.3    13  MET13      -0.1393
     12  CE        39.2900   17.0280    1.5630 C.3    13  MET13       0.0692
     13  N         36.1120   19.8460    5.5140 N.am   14  ILE14      -0.1977
     14  CA        35.5760   21.1990    5.8110 C.3    14  ILE14       0.1596
     15  C         36.5310   22.0080    6.6740 C.2    14  ILE14       0.2287
     16  O         36.6470   23.2150    6.4920 O.2    14  ILE14      -0.2864
     17  CB        34.1460   21.1240    6.4160 C.3    14  ILE14       0.0276
     18  CG1       33.4950   22.5150    6.3990 C.3    14  ILE14       0.0022
     19  CG2       34.1440   20.5090    7.8190 C.3    14  ILE14       0.0022
     20  CD1       32.1370   22.5970    6.9270 C.3    14  ILE14       0.0001
     21  N         32.7380   20.4740   13.9820 N.3    78  THR78      -0.1218
     22  CA        32.3840   19.5850   12.8840 C.3    78  THR78       0.1862
     23  C         32.6250   18.1070   13.1810 C.2    78  THR78       0.2287
     24  O         32.2400   17.2650   12.3900 O.2    78  THR78      -0.2866
     25  CB        33.1470   19.9520   11.6060 C.3    78  THR78       0.1770
     26  OG1       34.5740   19.9060   11.8160 O.3    78  THR78      -0.2211
     27  CG2       32.8070   21.3710   11.1440 C.3    78  THR78       0.0375
     28  N         28.1060   22.2970   13.5760 N.3   115  VAL115     -0.1245
     29  CA        27.8810   21.8790   12.2060 C.3   115  VAL115      0.1561
     30  C         27.4400   20.4110   12.1440 C.2   115  VAL115      0.2260
     31  O         26.7600   19.9860   11.2100 O.2   115  VAL115     -0.2867
     32  CB        29.1680   22.0900   11.3420 C.3   115  VAL115      0.0252
     33  CG1       28.9110   21.7680    9.8850 C.3   115  VAL115      0.0019
     34  CG2       29.6980   23.5080   11.5160 C.3   115  VAL115      0.0019
     35  N         24.9350   26.0070   11.9850 N.3   140  LEU140     -0.1245
     36  CA        24.8810   26.2640   10.5490 C.3   140  LEU140      0.1561
     37  C         23.5360   25.8280    9.9980 C.2   140  LEU140      0.2260
     38  O         23.0030   24.8080   10.4080 O.2   140  LEU140     -0.2867
     39  CB        25.9790   25.4670    9.8480 C.3   140  LEU140      0.0270
     40  CG        25.9760   25.4820    8.3100 C.3   140  LEU140      0.0019
     41  CD1       26.2920   26.8880    7.8530 C.3   140  LEU140      0.0001
     42  CD2       26.9250   24.4290    7.6970 C.3   140  LEU140      0.0001
     43  N         23.9540   28.5680    4.4020 N.3   144  LEU144     -0.1245
     44  CA        24.3080   27.5760    3.4000 C.3   144  LEU144      0.1561
     45  C         23.1380   27.2620    2.4540 C.2   144  LEU144      0.2260
     46  O         23.2960   27.2670    1.2450 O.2   144  LEU144     -0.2867
     47  CB        24.7770   26.2950    4.0870 C.3   144  LEU144      0.0270
     48  CG        25.0540   25.1190    3.1730 C.3   144  LEU144      0.0019
     49  CD1       26.1280   25.4660    2.1250 C.3   144  LEU144      0.0001
     50  CD2       25.4390   23.9110    3.9980 C.3   144  LEU144      0.0001
     51  N         22.4440   28.4870   -1.9810 N.3   148  ARG148     -0.1245
     52  CA        22.0380   27.7040   -3.1350 C.3   148  ARG148      0.1563
     53  C         20.8900   28.3730   -3.8550 C.2   148  ARG148      0.2260
     54  O         20.9600   28.5890   -5.0630 O.2   148  ARG148     -0.2867
     55  CB        21.6310   26.2820   -2.6990 C.3   148  ARG148      0.0307
     56  CG        22.7860   25.3260   -2.6280 C.3   148  ARG148      0.0489
     57  CD        23.4520   25.2840   -1.2880 C.3   148  ARG148      0.2205
     58  NE        24.5280   24.2970   -1.1320 N.pl3 148  ARG148     -0.0865
     59  CZ        24.5260   23.2620   -0.2800 C.cat 148  ARG148      0.5346
     60  NH1       25.5860   22.4850   -0.2090 N.pl3 148  ARG148      0.1354
     61  NH2       23.4910   22.9760    0.5080 N.pl3 148  ARG148      0.1354
     62  N         17.9030   22.8460    9.0100 N.3   172  HIS172     -0.1241
     63  CA        18.7690   22.4550    7.9300 C.3   172  HIS172      0.1621
     64  C         18.2290   21.0540    7.5810 C.2   172  HIS172      0.2264
     65  O         17.4260   20.4840    8.3390 O.2   172  HIS172     -0.2867
     66  CB        20.2760   22.4370    8.5340 C.3   172  HIS172      0.0745
     67  CG        21.3880   22.3640    7.5350 C.ar  172  HIS172      0.0817
     68  ND1       21.2930   22.9020    6.2690 N.ar  172  HIS172     -0.2268
     69  CD2       22.5830   21.7350    7.5890 C.ar  172  HIS172      0.1154
     70  CE1       22.4110   22.6470    5.6080 C.ar  172  HIS172      0.1986
     71  NE2       23.2040   21.9340    6.3870 N.ar  172  HIS172     -0.2212
     72  N         22.9450   18.9700   -1.6990 N.3   215  ALA215     -0.1245
     73  CA        24.0220   18.1580   -1.1350 C.3   215  ALA215      0.1562
     74  C         24.0000   16.7660   -1.7900 C.2   215  ALA215      0.2260
     75  O         25.0380   16.2420   -2.2100 O.2   215  ALA215     -0.2867
     76  CB        23.9090   18.0480    0.3500 C.3   215  ALA215      0.0290
     77  N         32.1750   15.7960   -2.9000 N.3   224  SER224     -0.1203
     78  CA        31.7350   15.9490   -1.5220 C.3   224  SER224      0.2005
     79  C         31.5260   17.4400   -1.2960 C.2   224  SER224      0.2461
     80  O         32.4690   18.2100   -1.4900 O.2   224  SER224     -0.2732
     81  CB        32.7920   15.4270   -0.5590 C.3   224  SER224      0.2103
     82  OG        32.3720   15.5620    0.7830 O.3   224  SER224     -0.2182
     83  N         30.3110   17.8480   -0.8970 N.am  225  PRO225     -0.2717
     84  CA        29.9610   19.2760   -0.8320 C.3   225  PRO225      0.1535
     85  C         30.3540   19.9650    0.4750 C.2   225  PRO225      0.2598
     86  O         29.4820   20.3300    1.2930 O.2   225  PRO225     -0.2715
     87  CB        28.4330   19.2460   -1.0260 C.3   225  PRO225      0.0310
     88  CG        28.0280   17.9650   -0.3520 C.3   225  PRO225      0.0237
     89  CD        29.1550   17.0000   -0.5630 C.3   225  PRO225      0.0939
     90  N         31.6690   20.1270    0.6790 N.am  226  TYR226     -0.1974
     91  CA        32.1740   20.8020    1.8740 C.3   226  TYR226      0.1639
     92  C         32.6730   22.2220    1.6750 C.2   226  TYR226      0.2290
     93  O         32.9090   22.8960    2.6530 O.2   226  TYR226     -0.2864
     94  CB        33.2840   19.9720    2.5340 C.3   226  TYR226      0.0560
     95  CG        34.4630   19.6240    1.6430 C.ar  226  TYR226     -0.0198
     96  CD1       34.5170   18.4030    0.9850 C.ar  226  TYR226     -0.0009
     97  CD2       35.4920   20.5240    1.4370 C.ar  226  TYR226     -0.0009
     98  CE1       35.5910   18.0630    0.1980 C.ar  226  TYR226      0.0417
     99  CE2       36.5800   20.2090    0.6180 C.ar  226  TYR226      0.0417
    100  CZ        36.6250   18.9780    0.0010 C.ar  226  TYR226      0.1957
    101  OH        37.6870   18.6610   -0.8280 O.3   226  TYR226     -0.2866
    102  N         29.6430   24.8790    2.6010 N.3   229  PRO229     -0.2116
    103  CA        29.5360   24.8550    4.0590 C.3   229  PRO229      0.1372
    104  C         30.6660   25.6230    4.7630 C.2   229  PRO229      0.2244
    105  O         30.3750   26.3970    5.6550 O.2   229  PRO229     -0.2868
    106  CB        29.5930   23.3810    4.3850 C.3   229  PRO229      0.0268
    107  CG        28.9850   22.7490    3.1820 C.3   229  PRO229      0.0207
    108  CD        29.4640   23.5350    2.0180 C.3   229  PRO229      0.0892
@<TRIPOS>BOND
     1    54    53    2
     2    53    52    1
     3    52    55    1
     4    52    51    1
     5    77    78    1
     6    55    56    1
     7    56    57    1
     8    75    74    2
     9    74    73    1
    10    72    73    1
    11    78    79    1
    12    78    81    1
    13    80    79    2
    14    79    83   am
    15    57    58    1
    16    73    76    1
    17    58    59    2
    18    87    84    1
    19    87    88    1
    20    83    84    1
    21    83    89    1
    22    84    85    1
    23   101   100    1
    24    89    88    1
    25    81    82    1
    26    59    60    1
    27    59    61    1
    28   100    98   ar
    29   100    99   ar
    30    98    96   ar
    31    85    90   am
    32    85    86    2
    33    99    97   ar
    34    90    91    1
    35    96    95   ar
    36    46    45    2
    37    97    95   ar
    38    12    11    1
    39    95    94    1
    40    92    91    1
    41    92    93    2
    42    91    94    1
    43   108   102    1
    44   108   107    1
    45    49    48    1
    46    45    44    1
    47   102   103    1
    48    11    10    1
    49    48    50    1
    50    48    47    1
    51   107   106    1
    52    10     9    1
    53    44    47    1
    54    44    43    1
    55     9     6    1
    56   103   106    1
    57   103   104    1
    58     8     7    2
    59     6     7    1
    60     6     5    1
    61   104   105    2
    62     7    13   am
    63    13    14    1
    64    70    68   ar
    65    70    71   ar
    66    14    17    1
    67    14    15    1
    68     5     3   am
    69    68    67   ar
    70    71    69   ar
    71    18    17    1
    72    18    20    1
    73    17    19    1
    74    16    15    2
    75     3     4    2
    76     3     2    1
    77    67    69   ar
    78    67    66    1
    79    64    63    1
    80    64    65    2
    81    42    40    1
    82    41    40    1
    83    63    66    1
    84    63    62    1
    85     2     1    1
    86    40    39    1
    87    39    36    1
    88    33    32    1
    89    37    38    2
    90    37    36    1
    91    36    35    1
    92    27    25    1
    93    31    30    2
    94    32    34    1
    95    32    29    1
    96    25    26    1
    97    25    22    1
    98    30    29    1
    99    29    28    1
   100    24    23    2
   101    22    23    1
   102    22    21    1
