@<TRIPOS>MOLECULE
tmp/1u4sA00.pdb
 110 103 0 0 0
SMALL
GASTEIGER

@<TRIPOS>ATOM
      1  N         35.7500   20.6860    5.5090 N.3    14  ILE14      -0.1245
      2  CA        35.1940   21.9850    5.8960 C.3    14  ILE14       0.1561
      3  C         36.2340   22.7540    6.7200 C.2    14  ILE14       0.2260
      4  O         36.4850   23.9150    6.4440 O.2    14  ILE14      -0.2867
      5  CB        33.8300   21.8600    6.6130 C.3    14  ILE14       0.0252
      6  CG1       32.7550   21.2880    5.6610 C.3    14  ILE14       0.0019
      7  CG2       33.3220   23.2100    7.1220 C.3    14  ILE14       0.0019
      8  CD1       31.4370   20.9470    6.3390 C.3    14  ILE14       0.0001
      9  N         21.1190    7.2560    8.8830 N.3    85  ARG85      -0.1245
     10  CA        21.2990    8.5870    9.4620 C.3    85  ARG85       0.1563
     11  C         20.8770    8.6760   10.9430 C.2    85  ARG85       0.2260
     12  O         21.6280    9.1900   11.7810 O.2    85  ARG85      -0.2867
     13  CB        20.5250    9.6300    8.6330 C.3    85  ARG85       0.0307
     14  CG        19.2220    9.5140    9.1960 C.3    85  ARG85       0.0489
     15  CD        18.3490   10.5170    8.6900 C.3    85  ARG85       0.2205
     16  NE        17.0140   10.3250    9.2310 N.pl3  85  ARG85      -0.0865
     17  CZ        16.0260   11.1250    8.9130 C.cat  85  ARG85       0.5346
     18  NH1       16.0610   12.3980    9.3200 N.pl3  85  ARG85       0.1354
     19  NH2       15.0010   10.6580    8.2120 N.pl3  85  ARG85       0.1354
     20  N         25.8020   17.6320   11.6030 N.3   117  ASN117     -0.1226
     21  CA        24.3940   17.3790   11.3180 C.3   117  ASN117      0.1770
     22  C         23.8040   16.2240   12.1160 C.2   117  ASN117      0.2439
     23  O         24.5360   15.2890   12.4710 O.2   117  ASN117     -0.2733
     24  CB        24.1960   17.1220    9.8410 C.3   117  ASN117      0.1168
     25  CG        24.1310   18.4190    9.0450 C.2   117  ASN117      0.2627
     26  OD1       23.2900   19.3200    9.2930 O.2   117  ASN117     -0.2716
     27  ND2       24.9910   18.5120    8.1040 N.am  117  ASN117     -0.0877
     28  N         22.4870   16.2510   12.3720 N.am  118  PRO118     -0.2729
     29  CA        21.5810   17.3550   11.9660 C.3   118  PRO118      0.1401
     30  C         21.7920   18.5730   12.8820 C.2   118  PRO118      0.2269
     31  O         21.7080   18.4840   14.1160 O.2   118  PRO118     -0.2865
     32  CB        20.1780   16.7520   12.1400 C.3   118  PRO118      0.0296
     33  CG        20.3810   15.6520   13.1530 C.3   118  PRO118      0.0237
     34  CD        21.7650   15.1290   13.0020 C.3   118  PRO118      0.0939
     35  N         25.0020   26.3690   11.8560 N.3   140  LEU140     -0.1245
     36  CA        24.9920   26.6320   10.4260 C.3   140  LEU140      0.1561
     37  C         23.7190   26.0760    9.7530 C.2   140  LEU140      0.2260
     38  O         23.4140   24.8960    9.9000 O.2   140  LEU140     -0.2867
     39  CB        26.1980   25.9490    9.7540 C.3   140  LEU140      0.0270
     40  CG        26.2420   26.0550    8.2190 C.3   140  LEU140      0.0019
     41  CD1       26.4500   27.4950    7.7760 C.3   140  LEU140      0.0001
     42  CD2       27.2690   25.0910    7.5620 C.3   140  LEU140      0.0001
     43  N         23.9330   29.1170    4.3560 N.3   144  LEU144     -0.1231
     44  CA        24.3030   28.1500    3.3320 C.3   144  LEU144      0.1693
     45  C         23.1430   27.7550    2.3810 C.2   144  LEU144      0.2592
     46  O         23.2860   27.8250    1.1630 O.2   144  LEU144     -0.2718
     47  CB        24.8670   26.9150    3.9950 C.3   144  LEU144      0.0284
     48  CG        25.1790   25.7460    3.0790 C.3   144  LEU144      0.0019
     49  CD1       26.1730   26.1410    2.0570 C.3   144  LEU144      0.0001
     50  CD2       25.6550   24.6060    3.9120 C.3   144  LEU144      0.0001
     51  N         21.9980   27.3700    2.9400 N.am  145  ASP145     -0.1974
     52  CA        20.8070   27.0300    2.1470 C.3   145  ASP145      0.1709
     53  C         20.3910   28.2020    1.2620 C.2   145  ASP145      0.2293
     54  O         20.1450   28.0130    0.0680 O.2   145  ASP145     -0.2864
     55  CB        19.6330   26.5670    3.0610 C.3   145  ASP145      0.1436
     56  CG        19.9630   25.2760    3.8050 C.2   145  ASP145      0.3671
     57  OD1       19.5320   25.0590    4.9780 O.co2 145  ASP145     -0.2456
     58  OD2       20.7200   24.4400    3.2810 O.co2 145  ASP145     -0.2456
     59  N         22.4140   28.9410   -2.0460 N.3   148  ARG148     -0.1245
     60  CA        22.0320   28.1820   -3.2020 C.3   148  ARG148      0.1563
     61  C         20.8560   28.8610   -3.9100 C.2   148  ARG148      0.2260
     62  O         20.8880   29.0800   -5.1230 O.2   148  ARG148     -0.2867
     63  CB        21.6360   26.7460   -2.8100 C.3   148  ARG148      0.0307
     64  CG        22.7780   25.8260   -2.6650 C.3   148  ARG148      0.0489
     65  CD        23.3320   25.7410   -1.3140 C.3   148  ARG148      0.2205
     66  NE        24.4400   24.7890   -1.1520 N.pl3 148  ARG148     -0.0865
     67  CZ        24.4570   23.7430   -0.3010 C.cat 148  ARG148      0.5346
     68  NH1       25.5340   22.9710   -0.1960 N.pl3 148  ARG148      0.1354
     69  NH2       23.4190   23.4360    0.4330 N.pl3 148  ARG148      0.1354
     70  N         17.7920   23.1230    8.9400 N.3   172  HIS172     -0.1226
     71  CA        18.6720   22.7260    7.8670 C.3   172  HIS172      0.1752
     72  C         18.1200   21.3380    7.5110 C.2   172  HIS172      0.2596
     73  O         17.3240   20.7490    8.2800 O.2   172  HIS172     -0.2718
     74  CB        20.1030   22.6660    8.4220 C.3   172  HIS172      0.0759
     75  CG        21.2080   22.6150    7.4000 C.ar  172  HIS172      0.0818
     76  ND1       21.2250   23.3820    6.2550 N.ar  172  HIS172     -0.2268
     77  CD2       22.3860   21.9390    7.4190 C.ar  172  HIS172      0.1154
     78  CE1       22.3620   23.1830    5.6090 C.ar  172  HIS172      0.1986
     79  NE2       23.0850   22.3100    6.2940 N.ar  172  HIS172     -0.2212
     80  N         18.4210   20.8520    6.3370 N.am  173  GLY173     -0.1957
     81  CA        17.9600   19.5500    5.9160 C.3   173  GLY173      0.1869
     82  C         16.7020   19.6040    5.0960 C.2   173  GLY173      0.2309
     83  O         16.2120   20.6690    4.7370 O.2   173  GLY173     -0.2863
     84  N         22.7010   19.3230   -1.5640 N.3   215  ALA215     -0.1245
     85  CA        23.6990   18.4020   -1.0120 C.3   215  ALA215      0.1562
     86  C         23.6850   17.0820   -1.7810 C.2   215  ALA215      0.2260
     87  O         24.7330   16.5800   -2.1880 O.2   215  ALA215     -0.2867
     88  CB        23.4890   18.1660    0.4630 C.3   215  ALA215      0.0290
     89  N         29.8720   18.5160   -0.6020 N.3   225  PRO225     -0.2116
     90  CA        29.8010   19.9460   -0.2820 C.3   225  PRO225      0.1372
     91  C         30.6780   20.2970    0.9140 C.2   225  PRO225      0.2244
     92  O         30.4980   19.7880    2.0220 O.2   225  PRO225     -0.2868
     93  CB        28.3040   20.1560    0.0050 C.3   225  PRO225      0.0268
     94  CG        27.8230   18.8050    0.4900 C.3   225  PRO225      0.0207
     95  CD        28.6320   17.8010   -0.2620 C.3   225  PRO225      0.0892
     96  N         29.7780   25.4440    2.4710 N.3   229  PRO229     -0.2116
     97  CA        29.5910   25.3650    3.9150 C.3   229  PRO229      0.1372
     98  C         30.6680   26.1850    4.6320 C.2   229  PRO229      0.2244
     99  O         30.3170   26.9490    5.5140 O.2   229  PRO229     -0.2868
    100  CB        29.6750   23.8780    4.2070 C.3   229  PRO229      0.0268
    101  CG        29.0730   23.2630    2.9660 C.3   229  PRO229      0.0207
    102  CD        29.6160   24.1260    1.8290 C.3   229  PRO229      0.0892
    103  N         14.3960   13.7180   16.0100 N.3   302  MET302     -0.1245
    104  CA        15.7870   13.2900   15.9950 C.3   302  MET302      0.1570
    105  C         16.4860   13.5430   17.3170 C.2   302  MET302      0.2261
    106  O         17.3260   12.7590   17.7390 O.2   302  MET302     -0.2867
    107  CB        16.5190   13.9540   14.8320 C.3   302  MET302      0.0387
    108  CG        16.0980   13.3690   13.4920 C.3   302  MET302      0.0595
    109  SD        17.1340   13.8610   12.1300 S.3   302  MET302     -0.1393
    110  CE        16.8400   15.5710   12.1970 C.3   302  MET302      0.0692
@<TRIPOS>BOND
     1    62    61    2
     2    61    60    1
     3    60    63    1
     4    60    59    1
     5    63    64    1
     6    64    65    1
     7    87    86    2
     8    86    85    1
     9    84    85    1
    10    65    66    1
    11    66    67    2
    12    85    88    1
    13    89    90    1
    14    89    95    1
    15    67    68    1
    16    67    69    1
    17    90    93    1
    18    90    91    1
    19    95    94    1
    20    93    94    1
    21    54    53    2
    22    91    92    2
    23    46    45    2
    24    53    52    1
    25   102    96    1
    26   102   101    1
    27    49    48    1
    28    52    51    1
    29    52    55    1
    30    45    51   am
    31    45    44    1
    32    96    97    1
    33   101   100    1
    34    55    56    1
    35    48    50    1
    36    48    47    1
    37    58    56   ar
    38    44    47    1
    39    44    43    1
    40    56    57   ar
    41    97   100    1
    42    97    98    1
    43    98    99    2
    44    83    82    2
    45    82    81    1
    46     1     2    1
    47    78    76   ar
    48    78    79   ar
    49     6     8    1
    50     6     5    1
    51     2     5    1
    52     2     3    1
    53    81    80    1
    54    76    75   ar
    55    79    77   ar
    56    80    72   am
    57     4     3    2
    58     5     7    1
    59    75    77   ar
    60    75    74    1
    61    72    71    1
    62    72    73    2
    63    42    40    1
    64    41    40    1
    65    71    74    1
    66    71    70    1
    67    27    25   am
    68    19    17    1
    69    40    39    1
    70    13    14    1
    71    13    10    1
    72    15    14    1
    73    15    16    1
    74     9    10    1
    75    17    16    2
    76    17    18    1
    77    25    26    2
    78    25    24    1
    79    10    11    1
    80    37    38    2
    81    37    36    1
    82    39    36    1
    83    24    21    1
    84    36    35    1
    85    11    12    2
    86    21    20    1
    87    21    22    1
    88    29    32    1
    89    29    28    1
    90    29    30    1
    91    22    28   am
    92    22    23    2
    93   109   110    1
    94   109   108    1
    95    32    33    1
    96    28    34    1
    97    30    31    2
    98    34    33    1
    99   108   107    1
   100   107   104    1
   101   104   103    1
   102   104   105    1
   103   105   106    2
