@<TRIPOS>MOLECULE
tmp/1u59A00.pdb
 171 161 0 0 0
SMALL
GASTEIGER

@<TRIPOS>ATOM
      1  N          5.7330    2.8160   56.9240 N.3    17  LEU17      -0.1231
      2  CA         6.3720    4.0570   56.5030 C.3    17  LEU17       0.1693
      3  C          6.3020    4.2370   54.9950 C.2    17  LEU17       0.2593
      4  O          6.2050    5.3560   54.4930 O.2    17  LEU17      -0.2718
      5  CB         7.8280    4.0640   56.9690 C.3    17  LEU17       0.0284
      6  CG         7.9490    4.0200   58.4920 C.3    17  LEU17       0.0019
      7  CD1        9.4100    4.1210   58.9160 C.3    17  LEU17       0.0001
      8  CD2        7.1180    5.1680   59.0790 C.3    17  LEU17       0.0001
      9  N          6.3520    3.1200   54.2840 N.am   18  GLY18      -0.1942
     10  CA         6.2800    3.1300   52.8370 C.3    18  GLY18       0.2014
     11  C          6.0750    1.6970   52.3930 C.2    18  GLY18       0.2639
     12  O          5.9440    0.8080   53.2330 O.2    18  GLY18      -0.2714
     13  N          6.0440    1.4530   51.0890 N.am   19  CYS19      -0.1967
     14  CA         5.8590    0.0920   50.6060 C.3    19  CYS19       0.1712
     15  C          6.3870   -0.1100   49.1950 C.2    19  CYS19       0.2296
     16  O          7.3930    0.4800   48.8110 O.2    19  CYS19      -0.2864
     17  CB         4.3790   -0.2960   50.6680 C.3    19  CYS19       0.0983
     18  SG         3.2900    0.7500   49.6850 S.3    19  CYS19      -0.0798
     19  N          8.6090   -4.8940   46.5070 N.3    22  PHE22      -0.1241
     20  CA         9.5940   -5.6120   47.3190 C.3    22  PHE22       0.1605
     21  C          9.0150   -6.0100   48.6740 C.2    22  PHE22       0.2264
     22  O          9.5400   -6.8930   49.3540 O.2    22  PHE22      -0.2867
     23  CB        10.8090   -4.7300   47.5720 C.3    22  PHE22       0.0534
     24  CG        10.5240   -3.5710   48.4860 C.ar   22  PHE22      -0.0203
     25  CD1        9.7870   -2.4860   48.0430 C.ar   22  PHE22      -0.0042
     26  CD2       10.9650   -3.5840   49.8000 C.ar   22  PHE22      -0.0042
     27  CE1        9.4950   -1.4370   48.8940 C.ar   22  PHE22      -0.0003
     28  CE2       10.6760   -2.5360   50.6570 C.ar   22  PHE22      -0.0003
     29  CZ         9.9400   -1.4610   50.2030 C.ar   22  PHE22      -0.0000
     30  N          8.0100   -1.1370   54.2660 N.3    25  VAL25      -0.1245
     31  CA         8.9320   -0.6200   55.2660 C.3    25  VAL25       0.1561
     32  C          8.0710   -0.2950   56.4800 C.2    25  VAL25       0.2260
     33  O          7.0750    0.4210   56.3710 O.2    25  VAL25      -0.2867
     34  CB         9.6430    0.6760   54.8050 C.3    25  VAL25       0.0252
     35  CG1       10.4650    1.2290   55.9450 C.3    25  VAL25       0.0019
     36  CG2       10.5430    0.3960   53.6200 C.3    25  VAL25       0.0019
     37  N         13.5970    1.5350   61.2480 N.3    37  ALA37      -0.1245
     38  CA        12.7430    1.3510   60.0890 C.3    37  ALA37       0.1562
     39  C         13.0820   -0.0710   59.6640 C.2    37  ALA37       0.2260
     40  O         14.2550   -0.4560   59.6350 O.2    37  ALA37      -0.2867
     41  CB        13.1060    2.3450   58.9880 C.3    37  ALA37       0.0290
     42  N         12.7130   -2.8940   56.6880 N.3    39  LYS39      -0.1245
     43  CA        12.3590   -3.2510   55.3230 C.3    39  LYS39       0.1561
     44  C         12.0780   -4.7550   55.3240 C.2    39  LYS39       0.2260
     45  O         13.0000   -5.5700   55.3960 O.2    39  LYS39      -0.2867
     46  CB        13.5170   -2.9160   54.3740 C.3    39  LYS39       0.0271
     47  CG        13.1790   -3.0930   52.9140 C.3    39  LYS39       0.0035
     48  CD        14.3760   -2.8180   52.0320 C.3    39  LYS39       0.0206
     49  CE        14.1100   -3.2570   50.6090 C.3    39  LYS39       0.1093
     50  NZ        15.3300   -3.1520   49.7700 N.3    39  LYS39      -0.1314
     51  N         22.4230   -5.4190   49.2490 N.3    56  GLU56      -0.1245
     52  CA        22.1130   -4.0800   49.7360 C.3    56  GLU56       0.1567
     53  C         22.6170   -3.9620   51.1720 C.2    56  GLU56       0.2260
     54  O         23.3070   -3.0080   51.5260 O.2    56  GLU56      -0.2867
     55  CB        20.5990   -3.8480   49.6840 C.3    56  GLU56       0.0388
     56  CG        20.1090   -2.6010   50.4110 C.3    56  GLU56       0.1160
     57  CD        18.6070   -2.4060   50.2700 C.2    56  GLU56       0.3649
     58  OE1       17.9150   -3.4010   49.9720 O.co2  56  GLU56      -0.2457
     59  OE2       18.1130   -1.2730   50.4680 O.co2  56  GLU56      -0.2457
     60  N         21.5070    6.9920   55.8290 N.3    69  VAL69      -0.1245
     61  CA        20.7730    6.1460   56.7690 C.3    69  VAL69       0.1561
     62  C         21.6360    4.9480   57.1300 C.2    69  VAL69       0.2260
     63  O         22.0860    4.2150   56.2540 O.2    69  VAL69      -0.2867
     64  CB        19.4540    5.6230   56.1630 C.3    69  VAL69       0.0252
     65  CG1       18.8560    4.5630   57.0700 C.3    69  VAL69       0.0019
     66  CG2       18.4760    6.7690   55.9770 C.3    69  VAL69       0.0019
     67  N         17.2510   -0.7350   59.8220 N.3    84  MET84      -0.1230
     68  CA        18.1280    0.4230   59.7550 C.3    84  MET84       0.1702
     69  C         17.6010    1.5870   60.5880 C.2    84  MET84       0.2592
     70  O         16.4260    1.6210   60.9400 O.2    84  MET84      -0.2718
     71  CB        18.3300    0.8260   58.2900 C.3    84  MET84       0.0401
     72  CG        17.0540    0.9680   57.4730 C.3    84  MET84       0.0596
     73  SD        17.2890    0.6080   55.6950 S.3    84  MET84      -0.1393
     74  CE        16.0150   -0.6250   55.4500 C.3    84  MET84       0.0692
     75  N         18.4650    2.5390   60.9180 N.am   85  GLU85      -0.1966
     76  CA        18.0240    3.6620   61.7310 C.3    85  GLU85       0.1733
     77  C         16.8150    4.3800   61.1390 C.2    85  GLU85       0.2616
     78  O         16.5620    4.3330   59.9290 O.2    85  GLU85      -0.2715
     79  CB        19.1730    4.6490   61.9840 C.3    85  GLU85       0.0429
     80  CG        19.7920    5.2790   60.7510 C.3    85  GLU85       0.1163
     81  CD        20.8750    6.2810   61.1080 C.2    85  GLU85       0.3649
     82  OE1       21.5720    6.7740   60.1970 O.co2  85  GLU85      -0.2457
     83  OE2       21.0240    6.5790   62.3110 O.co2  85  GLU85      -0.2457
     84  N         16.0650    5.0270   62.0230 N.am   86  MET86      -0.1963
     85  CA        14.8440    5.7420   61.6730 C.3    86  MET86       0.1736
     86  C         15.0420    7.2460   61.4780 C.2    86  MET86       0.2616
     87  O         15.7670    7.8900   62.2340 O.2    86  MET86      -0.2715
     88  CB        13.8110    5.5180   62.7790 C.3    86  MET86       0.0427
     89  CG        12.5360    6.3290   62.6360 C.3    86  MET86       0.0599
     90  SD        11.3270    5.4120   61.7130 S.3    86  MET86      -0.1393
     91  CE         9.8320    6.2700   62.1640 C.3    86  MET86       0.0692
     92  N         14.4080    7.7960   60.4490 N.am   87  ALA87      -0.1963
     93  CA        14.4650    9.2350   60.1870 C.3    87  ALA87       0.1728
     94  C         13.0050    9.6690   60.2060 C.2    87  ALA87       0.2616
     95  O         12.3330    9.7020   59.1690 O.2    87  ALA87      -0.2715
     96  CB        15.1040    9.5320   58.8290 C.3    87  ALA87       0.0334
     97  N         12.5340    9.9690   61.4170 N.am   88  GLY88      -0.1955
     98  CA        11.1570   10.3760   61.6540 C.3    88  GLY88       0.1869
     99  C         10.5810   11.4620   60.7750 C.2    88  GLY88       0.2309
    100  O          9.4110   11.4010   60.3950 O.2    88  GLY88      -0.2863
    101  N         10.8380   12.0460   57.7150 N.3    90  GLY90      -0.1210
    102  CA        10.2570   11.5620   56.4760 C.3    90  GLY90       0.1940
    103  C         10.9210   12.1510   55.2470 C.2    90  GLY90       0.2453
    104  O         11.9160   12.8630   55.3640 O.2    90  GLY90      -0.2732
    105  N         10.3830   11.8760   54.0490 N.am   91  PRO91      -0.2728
    106  CA        10.8930   12.3560   52.7580 C.3    91  PRO91       0.1401
    107  C         11.0310   13.8720   52.6540 C.2    91  PRO91       0.2269
    108  O         10.1550   14.6200   53.0910 O.2    91  PRO91      -0.2865
    109  CB         9.8700   11.8170   51.7540 C.3    91  PRO91       0.0296
    110  CG         9.3480   10.5790   52.4240 C.3    91  PRO91       0.0237
    111  CD         9.2000   11.0170   53.8580 C.3    91  PRO91       0.0939
    112  N         10.8310   15.8770   49.9830 N.3    93  HIS93      -0.1226
    113  CA         9.8170   16.5310   49.1640 C.3    93  HIS93       0.1752
    114  C          8.4530   16.7160   49.8280 C.2    93  HIS93       0.2595
    115  O          7.8940   17.8080   49.7810 O.2    93  HIS93      -0.2718
    116  CB         9.6890   15.8220   47.8080 C.3    93  HIS93       0.0759
    117  CG         9.1050   14.4470   47.8740 C.ar   93  HIS93       0.0818
    118  ND1        9.2510   13.6210   48.9670 N.ar   93  HIS93      -0.2268
    119  CD2        8.4100   13.7350   46.9520 C.ar   93  HIS93       0.1154
    120  CE1        8.6700   12.4600   48.7170 C.ar   93  HIS93       0.1986
    121  NE2        8.1540   12.5020   47.5000 N.ar   93  HIS93      -0.2212
    122  N          7.9120   15.6740   50.4520 N.am   94  LYS94      -0.1980
    123  CA         6.6250   15.8170   51.1270 C.3    94  LYS94       0.1596
    124  C          6.7900   16.7920   52.2860 C.2    94  LYS94       0.2287
    125  O          5.8540   17.4850   52.6640 O.2    94  LYS94      -0.2864
    126  CB         6.1390   14.4720   51.6600 C.3    94  LYS94       0.0298
    127  CG         5.5400   13.5700   50.5960 C.3    94  LYS94       0.0038
    128  CD         5.1430   12.2170   51.1770 C.3    94  LYS94       0.0206
    129  CE         4.7290   11.2570   50.0680 C.3    94  LYS94       0.1093
    130  NZ         4.5510    9.8520   50.5480 N.3    94  LYS94      -0.1314
    131  N         12.4780   12.2210   47.1940 N.3   135  ARG135     -0.1231
    132  CA        11.7130   11.2190   47.9180 C.3   135  ARG135      0.1694
    133  C         12.5920   10.2250   48.6700 C.2   135  ARG135      0.2592
    134  O         12.1060    9.5080   49.5490 O.2   135  ARG135     -0.2718
    135  CB        10.7910   10.4570   46.9700 C.3   135  ARG135      0.0321
    136  CG        11.5240    9.6550   45.9170 C.3   135  ARG135      0.0489
    137  CD        10.5490    8.9130   45.0180 C.3   135  ARG135      0.2205
    138  NE        11.2210    8.2570   43.8990 N.pl3 135  ARG135     -0.0865
    139  CZ        11.7860    8.9040   42.8820 C.cat 135  ARG135      0.5346
    140  NH1       11.7640   10.2350   42.8420 N.pl3 135  ARG135      0.1354
    141  NH2       12.3640    8.2230   41.8920 N.pl3 135  ARG135      0.1354
    142  N         13.8810   10.1710   48.3350 N.am  136  ASN136     -0.1974
    143  CA        14.7820    9.2480   49.0150 C.3   136  ASN136      0.1688
    144  C         15.7230    9.9330   49.9930 C.2   136  ASN136      0.2292
    145  O         16.6380    9.3120   50.5450 O.2   136  ASN136     -0.2864
    146  CB        15.5640    8.4110   48.0020 C.3   136  ASN136      0.1181
    147  CG        14.6790    7.4190   47.2830 C.2   136  ASN136      0.2629
    148  OD1       13.5880    7.0960   47.7580 O.2   136  ASN136     -0.2716
    149  ND2       15.1400    6.9180   46.1460 N.am  136  ASN136     -0.0877
    150  N         15.8140   11.5190   53.5000 N.3   138  LEU138     -0.1245
    151  CA        15.0050   11.4890   54.7120 C.3   138  LEU138      0.1561
    152  C         15.5430   12.4580   55.7650 C.2   138  LEU138      0.2260
    153  O         16.7460   12.6390   55.9140 O.2   138  LEU138     -0.2867
    154  CB        14.9740   10.0700   55.2860 C.3   138  LEU138      0.0270
    155  CG        14.3960    8.9960   54.3620 C.3   138  LEU138      0.0019
    156  CD1       14.6970    7.6530   54.9550 C.3   138  LEU138      0.0001
    157  CD2       12.8960    9.1680   54.1800 C.3   138  LEU138      0.0001
    158  N         18.9280    7.7850   51.7550 N.3   148  SER148     -0.1202
    159  CA        18.4730    6.4250   52.0310 C.3   148  SER148      0.2020
    160  C         18.1660    5.6200   50.7660 C.2   148  SER148      0.2618
    161  O         18.2670    6.1180   49.6380 O.2   148  SER148     -0.2717
    162  CB        17.2070    6.4680   52.8750 C.3   148  SER148      0.2103
    163  OG        16.0990    6.8210   52.0490 O.3   148  SER148     -0.2182
    164  N         17.7590    4.3750   50.9930 N.am  149  ASP149     -0.1973
    165  CA        17.3980    3.4160   49.9590 C.3   149  ASP149      0.1709
    166  C         18.5330    3.0850   48.9890 C.2   149  ASP149      0.2293
    167  O         18.5940    3.5990   47.8690 O.2   149  ASP149     -0.2864
    168  CB        16.1750    3.8980   49.1860 C.3   149  ASP149      0.1436
    169  CG        15.6200    2.8320   48.2720 C.2   149  ASP149      0.3671
    170  OD1       14.5970    3.0830   47.6060 O.co2 149  ASP149     -0.2456
    171  OD2       16.2070    1.7340   48.2200 O.co2 149  ASP149     -0.2456
@<TRIPOS>BOND
     1   141   139    1
     2   140   139    1
     3   139   138    2
     4   138   137    1
     5   137   136    1
     6   136   135    1
     7   149   147   am
     8    19    20    1
     9   119   121   ar
    10   119   117   ar
    11   135   132    1
    12   131   132    1
    13   147   148    2
    14   147   146    1
    15    20    23    1
    16    20    21    1
    17   121   120   ar
    18    23    24    1
    19   170   169   ar
    20   116   117    1
    21   116   113    1
    22   167   166    2
    23   117   118   ar
    24   132   133    1
    25   146   143    1
    26    25    24   ar
    27    25    27   ar
    28   171   169   ar
    29   169   168    1
    30   142   133   am
    31   142   143    1
    32    24    26   ar
    33   133   134    2
    34    21    22    2
    35   120   118   ar
    36    16    15    2
    37    27    29   ar
    38   166   165    1
    39   143   144    1
    40   113   114    1
    41   113   112    1
    42   168   165    1
    43    15    14    1
    44    51    52    1
    45   161   160    2
    46    55    52    1
    47    55    56    1
    48    18    17    1
    49    52    53    1
    50    50    49    1
    51   115   114    2
    52    26    28   ar
    53   114   122   am
    54   165   164    1
    55    58    57   ar
    56   144   145    2
    57   129   130    1
    58   129   128    1
    59    29    28   ar
    60    57    56    1
    61    57    59   ar
    62   122   123    1
    63   127   128    1
    64   127   126    1
    65    14    17    1
    66    14    13    1
    67    49    48    1
    68   160   164   am
    69   160   159    1
    70    13    11   am
    71   123   126    1
    72   123   124    1
    73    53    54    2
    74   109   110    1
    75   109   106    1
    76   158   159    1
    77   159   162    1
    78    48    47    1
    79   163   162    1
    80   124   125    2
    81    11    10    1
    82    11    12    2
    83   110   111    1
    84   107   106    1
    85   107   108    2
    86   106   105    1
    87    10     9    1
    88    47    46    1
    89   150   151    1
    90    36    34    1
    91   111   105    1
    92   105   103   am
    93   157   155    1
    94    30    31    1
    95     9     3   am
    96   155   156    1
    97   155   154    1
    98    46    43    1
    99     4     3    2
   100   151   154    1
   101   151   152    1
   102    34    31    1
   103    34    35    1
   104     3     2    1
   105   103   104    2
   106   103   102    1
   107    31    32    1
   108    43    44    1
   109    43    42    1
   110    44    45    2
   111    74    73    1
   112    73    72    1
   113   152   153    2
   114    60    61    1
   115    66    64    1
   116    64    61    1
   117    64    65    1
   118    63    62    2
   119    33    32    2
   120   102   101    1
   121     2     1    1
   122     2     5    1
   123    61    62    1
   124     5     6    1
   125    72    71    1
   126    71    68    1
   127     6     7    1
   128     6     8    1
   129    96    93    1
   130    41    38    1
   131    95    94    2
   132    40    39    2
   133    39    38    1
   134    68    67    1
   135    68    69    1
   136    78    77    2
   137    38    37    1
   138    93    94    1
   139    93    92    1
   140    82    81   ar
   141    94    97   am
   142   100    99    2
   143    92    86   am
   144    69    75   am
   145    69    70    2
   146    80    81    1
   147    80    79    1
   148    99    98    1
   149    75    76    1
   150    81    83   ar
   151    77    76    1
   152    77    84   am
   153    97    98    1
   154    86    85    1
   155    86    87    2
   156    85    84    1
   157    85    88    1
   158    90    91    1
   159    90    89    1
   160    76    79    1
   161    89    88    1
