@<TRIPOS>MOLECULE
tmp/1u5aA00.pdb
 83 79 0 0 0
SMALL
GASTEIGER

@<TRIPOS>ATOM
      1  N         25.8020   17.2050   11.6990 N.3   116  ASN116     -0.1226
      2  CA        24.4100   16.9790   11.3830 C.3   116  ASN116      0.1770
      3  C         23.8020   15.7970   12.1760 C.2   116  ASN116      0.2439
      4  O         24.5310   14.8750   12.5810 O.2   116  ASN116     -0.2733
      5  CB        24.2270   16.8010    9.8900 C.3   116  ASN116      0.1168
      6  CG        24.1320   18.1430    9.1550 C.2   116  ASN116      0.2627
      7  OD1       23.2810   18.9610    9.4690 O.2   116  ASN116     -0.2716
      8  ND2       24.9880   18.3450    8.1800 N.am  116  ASN116     -0.0877
      9  N         22.4920   15.8430   12.4230 N.am  117  PRO117     -0.2729
     10  CA        21.6180   16.9520   12.0120 C.3   117  PRO117      0.1401
     11  C         21.7920   18.1540   12.9330 C.2   117  PRO117      0.2269
     12  O         21.5990   18.0890   14.1390 O.2   117  PRO117     -0.2865
     13  CB        20.2220   16.3420   12.1310 C.3   117  PRO117      0.0296
     14  CG        20.3780   15.3520   13.2940 C.3   117  PRO117      0.0237
     15  CD        21.7420   14.7910   13.1340 C.3   117  PRO117      0.0939
     16  N         23.9550   28.5510    4.4010 N.3   143  LEU143     -0.1231
     17  CA        24.3230   27.5620    3.3690 C.3   143  LEU143      0.1693
     18  C         23.1480   27.2450    2.4210 C.2   143  LEU143      0.2592
     19  O         23.2750   27.3180    1.2010 O.2   143  LEU143     -0.2718
     20  CB        24.8280   26.2790    4.0270 C.3   143  LEU143      0.0284
     21  CG        25.1150   25.1100    3.1010 C.3   143  LEU143      0.0019
     22  CD1       26.1800   25.5190    2.0890 C.3   143  LEU143      0.0001
     23  CD2       25.5540   23.9300    3.8950 C.3   143  LEU143      0.0001
     24  N         21.9840   26.9220    2.9770 N.am  144  ASP144     -0.1974
     25  CA        20.8340   26.5540    2.1420 C.3   144  ASP144      0.1709
     26  C         20.4240   27.7150    1.2480 C.2   144  ASP144      0.2293
     27  O         20.1650   27.5280    0.0680 O.2   144  ASP144     -0.2864
     28  CB        19.6490   26.1260    3.0130 C.3   144  ASP144      0.1436
     29  CG        19.9100   24.8280    3.7190 C.2   144  ASP144      0.3671
     30  OD1       19.5220   24.7040    4.8770 O.co2 144  ASP144     -0.2456
     31  OD2       20.5460   23.8960    3.1970 O.co2 144  ASP144     -0.2456
     32  N         22.4590   28.5410   -2.0470 N.3   147  ARG147     -0.1245
     33  CA        22.0660   27.7710   -3.2090 C.3   147  ARG147      0.1563
     34  C         20.9070   28.4230   -3.9250 C.2   147  ARG147      0.2260
     35  O         20.9930   28.6580   -5.1390 O.2   147  ARG147     -0.2867
     36  CB        21.7730   26.3450   -2.8020 C.3   147  ARG147      0.0307
     37  CG        23.0900   25.6900   -2.4830 C.3   147  ARG147      0.0489
     38  CD        23.1060   24.9950   -1.2620 C.3   147  ARG147      0.2205
     39  NE        24.3120   24.2200   -1.0490 N.pl3 147  ARG147     -0.0865
     40  CZ        24.3830   23.2700   -0.1270 C.cat 147  ARG147      0.5346
     41  NH1       23.3400   23.0130    0.6460 N.pl3 147  ARG147      0.1354
     42  NH2       25.4920   22.6030    0.0460 N.pl3 147  ARG147      0.1354
     43  N         17.7240   22.8310    8.9260 N.3   171  HIS171     -0.1226
     44  CA        18.6100   22.4260    7.8580 C.3   171  HIS171      0.1752
     45  C         18.1220   21.0320    7.4450 C.2   171  HIS171      0.2596
     46  O         17.3300   20.3890    8.1590 O.2   171  HIS171     -0.2718
     47  CB        20.0220   22.4430    8.4170 C.3   171  HIS171      0.0759
     48  CG        21.1160   22.2990    7.4070 C.ar  171  HIS171      0.0818
     49  ND1       21.1430   22.9820    6.2030 N.ar  171  HIS171     -0.2268
     50  CD2       22.2650   21.5830    7.4650 C.ar  171  HIS171      0.1154
     51  CE1       22.2500   22.6590    5.5560 C.ar  171  HIS171      0.1986
     52  NE2       22.9570   21.8310    6.3110 N.ar  171  HIS171     -0.2212
     53  N         18.5300   20.5510    6.2960 N.am  172  GLY172     -0.1957
     54  CA        18.0660   19.2310    5.8820 C.3   172  GLY172      0.1869
     55  C         16.7370   19.2760    5.1500 C.2   172  GLY172      0.2309
     56  O         16.2510   20.3410    4.7430 O.2   172  GLY172     -0.2863
     57  N         13.6420   21.6530    5.4610 N.3   175  MET175     -0.1245
     58  CA        13.9010   23.0880    5.3930 C.3   175  MET175      0.1570
     59  C         12.6840   23.7850    4.7690 C.2   175  MET175      0.2261
     60  O         12.0460   23.2440    3.8630 O.2   175  MET175     -0.2867
     61  CB        15.1890   23.3780    4.6000 C.3   175  MET175      0.0387
     62  CG        15.0740   23.0800    3.0820 C.3   175  MET175      0.0595
     63  SD        16.5410   23.5700    2.1680 S.3   175  MET175     -0.1393
     64  CE        17.6100   22.3310    2.5770 C.3   175  MET175      0.0692
     65  N         22.7670   18.9470   -1.6600 N.3   214  ALA214     -0.1245
     66  CA        23.8160   18.1070   -1.0970 C.3   214  ALA214      0.1562
     67  C         23.7750   16.7220   -1.7670 C.2   214  ALA214      0.2260
     68  O         24.8080   16.1910   -2.1420 O.2   214  ALA214     -0.2867
     69  CB        23.6950   17.9960    0.3900 C.3   214  ALA214      0.0290
     70  N         29.9570   18.0700   -0.5600 N.3   224  PRO224     -0.2116
     71  CA        29.8500   19.4940   -0.2280 C.3   224  PRO224      0.1372
     72  C         30.6810   19.8510    0.9690 C.2   224  PRO224      0.2244
     73  O         30.4200   19.3800    2.1070 O.2   224  PRO224     -0.2868
     74  CB        28.3500   19.6960    0.0770 C.3   224  PRO224      0.0268
     75  CG        27.6810   18.3850   -0.2580 C.3   224  PRO224      0.0207
     76  CD        28.7400   17.3390   -0.1800 C.3   224  PRO224      0.0892
     77  N         29.7360   25.0370    2.5570 N.3   228  PRO228     -0.2116
     78  CA        29.6190   24.9590    4.0130 C.3   228  PRO228      0.1372
     79  C         30.7030   25.7510    4.7130 C.2   228  PRO228      0.2244
     80  O         30.3770   26.5780    5.5720 O.2   228  PRO228     -0.2868
     81  CB        29.7360   23.4640    4.2860 C.3   228  PRO228      0.0268
     82  CG        29.0890   22.8660    3.0920 C.3   228  PRO228      0.0207
     83  CD        29.6020   23.7080    1.9200 C.3   228  PRO228      0.0892
@<TRIPOS>BOND
     1    35    34    2
     2    34    33    1
     3    33    36    1
     4    33    32    1
     5    36    37    1
     6    37    38    1
     7    68    67    2
     8    67    66    1
     9    65    66    1
    10    38    39    1
    11    66    69    1
    12    39    40    2
    13    70    71    1
    14    70    76    1
    15    75    76    1
    16    75    74    1
    17    71    74    1
    18    71    72    1
    19    40    42    1
    20    40    41    1
    21    27    26    2
    22    72    73    2
    23    19    18    2
    24    26    25    1
    25    83    77    1
    26    83    82    1
    27    22    21    1
    28    25    24    1
    29    25    28    1
    30    63    64    1
    31    63    62    1
    32    18    24   am
    33    18    17    1
    34    77    78    1
    35    28    29    1
    36    62    61    1
    37    82    81    1
    38    21    23    1
    39    21    20    1
    40    31    29   ar
    41    17    20    1
    42    17    16    1
    43    29    30   ar
    44    60    59    2
    45    78    81    1
    46    78    79    1
    47    61    58    1
    48    79    80    2
    49    56    55    2
    50    59    58    1
    51    55    54    1
    52    58    57    1
    53    51    49   ar
    54    51    52   ar
    55    54    53    1
    56    49    48   ar
    57    53    45   am
    58    52    50   ar
    59    48    50   ar
    60    48    47    1
    61    45    44    1
    62    45    46    2
    63    44    47    1
    64    44    43    1
    65     8     6   am
    66     6     7    2
    67     6     5    1
    68     5     2    1
    69     2     1    1
    70     2     3    1
    71    10    13    1
    72    10     9    1
    73    10    11    1
    74    13    14    1
    75     3     9   am
    76     3     4    2
    77     9    15    1
    78    11    12    2
    79    15    14    1
