@<TRIPOS>MOLECULE
tmp/1u5rA00.pdb
 170 160 0 0 0
SMALL
GASTEIGER

@<TRIPOS>ATOM
      1  N         46.1230   52.9420   -5.5050 N.3    23  ILE23      -0.1231
      2  CA        44.9510   52.8310   -4.6270 C.3    23  ILE23       0.1692
      3  C         44.6240   54.1980   -4.0290 C.2    23  ILE23       0.2593
      4  O         43.6970   54.3330   -3.2260 O.2    23  ILE23      -0.2718
      5  CB        45.1690   51.8480   -3.4470 C.3    23  ILE23       0.0266
      6  CG1       46.4600   52.1990   -2.7170 C.3    23  ILE23       0.0019
      7  CG2       45.1610   50.3990   -3.9420 C.3    23  ILE23       0.0020
      8  CD1       46.7800   51.2500   -1.5650 C.3    23  ILE23       0.0001
      9  N         45.3970   55.2040   -4.4230 N.am   24  GLY24      -0.1942
     10  CA        45.1810   56.5450   -3.9220 C.3    24  GLY24       0.2014
     11  C         46.1910   57.4910   -4.5300 C.2    24  GLY24       0.2639
     12  O         47.1040   57.0690   -5.2350 O.2    24  GLY24      -0.2714
     13  N         46.0190   58.7800   -4.2740 N.am   25  HIS25      -0.1959
     14  CA        46.9350   59.7710   -4.7910 C.3    25  HIS25       0.1787
     15  C         47.2230   60.7620   -3.6820 C.2    25  HIS25       0.2621
     16  O         46.3080   61.3370   -3.0960 O.2    25  HIS25      -0.2715
     17  CB        46.3280   60.4790   -6.0100 C.3    25  HIS25       0.0785
     18  CG        47.1330   60.3150   -7.2620 C.ar   25  HIS25       0.0821
     19  ND1       48.3860   60.8710   -7.4190 N.ar   25  HIS25      -0.2267
     20  CD2       46.8780   59.6310   -8.4040 C.ar   25  HIS25       0.1154
     21  CE1       48.8690   60.5350   -8.6030 C.ar   25  HIS25       0.1986
     22  NE2       47.9750   59.7830   -9.2200 N.ar   25  HIS25      -0.2212
     23  N         48.5010   60.9430   -3.3820 N.am   26  GLY26      -0.1940
     24  CA        48.8780   61.8660   -2.3360 C.3    26  GLY26       0.2014
     25  C         49.4440   63.1610   -2.8810 C.2    26  GLY26       0.2640
     26  O         49.2360   63.5190   -4.0420 O.2    26  GLY26      -0.2714
     27  N         50.1840   63.8540   -2.0290 N.am   27  SER27      -0.1935
     28  CA        50.7900   65.1210   -2.3880 C.3    27  SER27       0.2055
     29  C         52.1420   64.9870   -3.0880 C.2    27  SER27       0.2643
     30  O         52.6610   65.9690   -3.6200 O.2    27  SER27      -0.2714
     31  CB        50.9310   65.9870   -1.1310 C.3    27  SER27       0.2130
     32  OG        51.4150   65.2340   -0.0300 O.3    27  SER27      -0.2179
     33  N         52.7100   63.7830   -3.0950 N.am   28  PHE28      -0.1973
     34  CA        54.0070   63.5700   -3.7390 C.3    28  PHE28       0.1639
     35  C         53.9420   62.4760   -4.7860 C.2    28  PHE28       0.2290
     36  O         54.9330   62.1870   -5.4640 O.2    28  PHE28      -0.2864
     37  CB        55.0710   63.1840   -2.7130 C.3    28  PHE28       0.0560
     38  CG        55.2800   64.2010   -1.6420 C.ar   28  PHE28      -0.0200
     39  CD1       54.2620   64.5020   -0.7400 C.ar   28  PHE28      -0.0042
     40  CD2       56.5020   64.8550   -1.5240 C.ar   28  PHE28      -0.0042
     41  CE1       54.4580   65.4410    0.2670 C.ar   28  PHE28      -0.0003
     42  CE2       56.7120   65.7960   -0.5220 C.ar   28  PHE28      -0.0003
     43  CZ        55.6890   66.0910    0.3770 C.ar   28  PHE28      -0.0000
     44  N         49.7380   56.2710   -4.3380 N.3    31  VAL31      -0.1245
     45  CA        49.9420   55.3500   -3.2470 C.3    31  VAL31       0.1561
     46  C         49.5100   54.0630   -3.9260 C.2    31  VAL31       0.2260
     47  O         48.4460   54.0160   -4.5600 O.2    31  VAL31      -0.2867
     48  CB        49.0370   55.6670   -2.0450 C.3    31  VAL31       0.0252
     49  CG1       49.1390   54.5620   -1.0000 C.3    31  VAL31       0.0019
     50  CG2       49.4510   57.0030   -1.4370 C.3    31  VAL31       0.0019
     51  N         51.4740   48.5310    1.1130 N.3    44  ALA44      -0.1245
     52  CA        51.0470   49.7910    0.5180 C.3    44  ALA44       0.1562
     53  C         52.3280   50.5650    0.3500 C.2    44  ALA44       0.2260
     54  O         53.1760   50.5660    1.2520 O.2    44  ALA44      -0.2867
     55  CB        50.1220   50.5370    1.4450 C.3    44  ALA44       0.0290
     56  N         53.8930   54.3550   -0.7140 N.3    46  LYS46      -0.1245
     57  CA        53.6650   55.7680   -0.9570 C.3    46  LYS46       0.1561
     58  C         54.9160   56.2450   -1.6760 C.2    46  LYS46       0.2260
     59  O         55.9900   56.3190   -1.0850 O.2    46  LYS46      -0.2867
     60  CB        53.4850   56.4780    0.3910 C.3    46  LYS46       0.0271
     61  CG        52.8720   57.8710    0.3610 C.3    46  LYS46       0.0035
     62  CD        52.4890   58.2830    1.7850 C.3    46  LYS46       0.0206
     63  CE        51.8620   59.6590    1.8570 C.3    46  LYS46       0.1093
     64  NZ        51.5130   60.0130    3.2670 N.3    46  LYS46      -0.1314
     65  N         57.1210   59.0150   -3.2150 N.3    48  MET48      -0.1245
     66  CA        57.2670   60.4450   -3.0450 C.3    48  MET48       0.1570
     67  C         58.4660   60.9370   -3.8310 C.2    48  MET48       0.2261
     68  O         59.6170   60.7120   -3.4620 O.2    48  MET48      -0.2867
     69  CB        57.4060   60.7780   -1.5610 C.3    48  MET48       0.0387
     70  CG        56.2590   60.2170   -0.7180 C.3    48  MET48       0.0595
     71  SD        56.4020   60.5280    1.0660 S.3    48  MET48      -0.1393
     72  CE        55.1520   61.8080    1.2950 C.3    48  MET48       0.0692
     73  N         49.1070   53.3730   11.6190 N.3    78  ILE78      -0.1245
     74  CA        49.4890   52.5960   10.4510 C.3    78  ILE78       0.1561
     75  C         50.9310   52.0960   10.5890 C.2    78  ILE78       0.2260
     76  O         51.8380   52.8710   10.8910 O.2    78  ILE78      -0.2867
     77  CB        49.2920   53.4570    9.1780 C.3    78  ILE78       0.0252
     78  CG1       49.0870   52.5620    7.9640 C.3    78  ILE78       0.0019
     79  CG2       50.4540   54.4340    9.0260 C.3    78  ILE78       0.0019
     80  CD1       50.2580   51.7440    7.6060 C.3    78  ILE78       0.0001
     81  N         54.3140   50.5880    3.8410 N.3    94  MET94      -0.1230
     82  CA        53.4380   50.4840    5.0050 C.3    94  MET94       0.1702
     83  C         52.5990   49.2360    4.9000 C.2    94  MET94       0.2592
     84  O         52.4670   48.6650    3.8290 O.2    94  MET94      -0.2718
     85  CB        52.4380   51.6580    5.0360 C.3    94  MET94       0.0401
     86  CG        53.0340   53.0540    4.9950 C.3    94  MET94       0.0596
     87  SD        51.6540   54.2710    4.7350 S.3    94  MET94      -0.1393
     88  CE        51.6040   54.2420    2.8950 C.3    94  MET94       0.0692
     89  N         52.0070   48.8240    6.0150 N.am   95  GLU95      -0.1966
     90  CA        51.1240   47.6840    5.9560 C.3    95  GLU95       0.1733
     91  C         49.9950   48.1530    5.0390 C.2    95  GLU95       0.2616
     92  O         49.7160   49.3650    4.9100 O.2    95  GLU95      -0.2715
     93  CB        50.5780   47.3330    7.3430 C.3    95  GLU95       0.0429
     94  CG        49.6130   48.3770    7.9360 C.3    95  GLU95       0.1163
     95  CD        49.0600   47.9290    9.2750 C.2    95  GLU95       0.3649
     96  OE1       49.1620   48.6900   10.2570 O.co2  95  GLU95      -0.2457
     97  OE2       48.5270   46.8030    9.3410 O.co2  95  GLU95      -0.2457
     98  N         49.3380   47.2040    4.3990 N.am   96  TYR96      -0.1960
     99  CA        48.2680   47.5360    3.4790 C.3    96  TYR96       0.1771
    100  C         46.9070   47.5500    4.1590 C.2    96  TYR96       0.2619
    101  O         46.5480   46.5980    4.8310 O.2    96  TYR96      -0.2715
    102  CB        48.2430   46.5200    2.3380 C.3    96  TYR96       0.0574
    103  CG        47.0600   46.6560    1.4130 C.ar   96  TYR96      -0.0198
    104  CD1       46.9990   47.6790    0.4760 C.ar   96  TYR96      -0.0009
    105  CD2       46.0170   45.7410    1.4540 C.ar   96  TYR96      -0.0009
    106  CE1       45.9260   47.7780   -0.4120 C.ar   96  TYR96       0.0417
    107  CE2       44.9400   45.8390    0.5730 C.ar   96  TYR96       0.0417
    108  CZ        44.9120   46.8550   -0.3560 C.ar   96  TYR96       0.1957
    109  OH        43.8790   46.9320   -1.2570 O.3    96  TYR96      -0.2866
    110  N         46.1610   48.6370    3.9750 N.am   97  CYS97      -0.1968
    111  CA        44.8160   48.7540    4.5260 C.3    97  CYS97       0.1712
    112  C         43.8850   48.7080    3.3170 C.2    97  CYS97       0.2296
    113  O         44.2380   49.1980    2.2530 O.2    97  CYS97      -0.2864
    114  CB        44.6790   50.0750    5.2770 C.3    97  CYS97       0.0983
    115  SG        45.7500   50.1480    6.7190 S.3    97  CYS97      -0.0798
    116  N         41.0930   50.2960    2.8040 N.3    99  GLY99      -0.1210
    117  CA        40.4200   51.5520    2.5020 C.3    99  GLY99       0.1956
    118  C         40.3330   52.4520    3.7240 C.2    99  GLY99       0.2612
    119  O         40.7260   52.0640    4.8280 O.2    99  GLY99      -0.2717
    120  N         39.8230   53.6570    3.5270 N.am  100  SER100     -0.1952
    121  CA        39.6750   54.6070    4.6230 C.3   100  SER100      0.1924
    122  C         38.2180   54.6410    5.0410 C.2   100  SER100      0.2314
    123  O         37.3520   54.0980    4.3440 O.2   100  SER100     -0.2863
    124  CB        40.0870   56.0050    4.1800 C.3   100  SER100      0.2116
    125  OG        39.1760   56.5200    3.2160 O.3   100  SER100     -0.2180
    126  N         36.3040   56.2330    2.4060 N.3   103  ASP103     -0.1239
    127  CA        35.9840   55.3530    1.2740 C.3   103  ASP103      0.1674
    128  C         34.7130   54.5740    1.6450 C.2   103  ASP103      0.2266
    129  O         33.8880   54.2530    0.7810 O.2   103  ASP103     -0.2867
    130  CB        37.1050   54.3320    0.9790 C.3   103  ASP103      0.1410
    131  CG        38.4040   54.9800    0.5090 C.2   103  ASP103      0.3668
    132  OD1       38.3720   56.0030   -0.2060 O.co2 103  ASP103     -0.2456
    133  OD2       39.4770   54.4480    0.8450 O.co2 103  ASP103     -0.2456
    134  N         39.0890   60.5130    6.0360 N.3   144  GLY144     -0.1210
    135  CA        39.9970   60.1240    4.9670 C.3   144  GLY144      0.1956
    136  C         41.3800   59.7170    5.4340 C.2   144  GLY144      0.2611
    137  O         42.1680   59.1760    4.6410 O.2   144  GLY144     -0.2717
    138  N         41.6970   59.9840    6.7040 N.am  145  ASN145     -0.1974
    139  CA        43.0090   59.6220    7.2340 C.3   145  ASN145      0.1688
    140  C         42.9250   58.5020    8.2700 C.2   145  ASN145      0.2292
    141  O         43.8890   58.2440    8.9840 O.2   145  ASN145     -0.2864
    142  CB        43.7310   60.8450    7.8280 C.3   145  ASN145      0.1181
    143  CG        44.2800   61.7740    6.7560 C.2   145  ASN145      0.2629
    144  OD1       44.4170   61.3800    5.5970 O.2   145  ASN145     -0.2716
    145  ND2       44.6140   63.0090    7.1400 N.am  145  ASN145     -0.0877
    146  N         42.2990   54.5540    8.5060 N.3   147  LEU147     -0.1245
    147  CA        42.3030   53.3810    7.6380 C.3   147  LEU147      0.1561
    148  C         41.8360   52.1110    8.3250 C.2   147  LEU147      0.2260
    149  O         41.9910   51.9610    9.5340 O.2   147  LEU147     -0.2867
    150  CB        43.7250   53.1620    7.0840 C.3   147  LEU147      0.0270
    151  CG        44.3850   54.4330    6.5310 C.3   147  LEU147      0.0019
    152  CD1       45.8670   54.1760    6.2350 C.3   147  LEU147      0.0001
    153  CD2       43.6410   54.8840    5.2730 C.3   147  LEU147      0.0001
    154  N         48.4820   58.9440    7.5820 N.3   158  ASP158     -0.1239
    155  CA        48.8110   60.2990    7.1450 C.3   158  ASP158      0.1674
    156  C         49.3920   61.1820    8.2470 C.2   158  ASP158      0.2266
    157  O         48.6990   62.0120    8.8320 O.2   158  ASP158     -0.2867
    158  CB        47.5620   60.9810    6.5400 C.3   158  ASP158      0.1410
    159  CG        47.8920   62.3230    5.9050 C.2   158  ASP158      0.3668
    160  OD1       49.0900   62.6930    5.9360 O.co2 158  ASP158     -0.2456
    161  OD2       46.9760   63.0060    5.3880 O.co2 158  ASP158     -0.2456
    162  N         39.5680   48.9020   -5.5490 N.3   302  LYS302     -0.1245
    163  CA        40.8240   48.6180   -4.8550 C.3   302  LYS302      0.1561
    164  C         40.5720   47.7750   -3.6130 C.2   302  LYS302      0.2260
    165  O         41.4150   46.9850   -3.2040 O.2   302  LYS302     -0.2867
    166  CB        41.5140   49.9190   -4.4410 C.3   302  LYS302      0.0271
    167  CG        40.7920   50.6780   -3.3320 C.3   302  LYS302      0.0035
    168  CD        41.4520   52.0170   -3.0450 C.3   302  LYS302      0.0206
    169  CE        40.7390   52.7600   -1.9190 C.3   302  LYS302      0.1093
    170  NZ        41.3560   54.0840   -1.6200 N.3   302  LYS302     -0.1314
@<TRIPOS>BOND
     1    22    21   ar
     2    22    20   ar
     3    21    19   ar
     4    20    18   ar
     5    19    18   ar
     6    18    17    1
     7    17    14    1
     8   162   163    1
     9     1     2    1
    10    36    35    2
    11    12    11    2
    12   163   166    1
    13   163   164    1
    14    14    13    1
    15    14    15    1
    16    35    34    1
    17     2     3    1
    18     2     5    1
    19    47    46    2
    20    11    13   am
    21    11    10    1
    22   166   167    1
    23     9     3   am
    24     9    10    1
    25    44    45    1
    26    26    25    2
    27     3     4    2
    28     7     5    1
    29    46    45    1
    30    67    68    2
    31    67    66    1
    32    34    33    1
    33    34    37    1
    34    15    23   am
    35    15    16    2
    36    30    29    2
    37   164   165    2
    38     5     6    1
    39    23    24    1
    40   167   168    1
    41    45    48    1
    42    65    66    1
    43    33    29   am
    44    29    28    1
    45   168   169    1
    46    66    69    1
    47    25    24    1
    48    25    27   am
    49     6     8    1
    50    37    38    1
    51    28    27    1
    52    28    31    1
    53    48    50    1
    54    48    49    1
    55   169   170    1
    56    58    59    2
    57    58    57    1
    58    38    40   ar
    59    38    39   ar
    60    69    70    1
    61    40    42   ar
    62   109   108    1
    63    31    32    1
    64    57    56    1
    65    57    60    1
    66    39    41   ar
    67    70    71    1
    68    42    43   ar
    69   106   108   ar
    70   106   104   ar
    71   108   107   ar
    72   132   131   ar
    73    41    43   ar
    74    53    52    1
    75    53    54    2
    76    61    60    1
    77    61    62    1
    78   104   103   ar
    79   131   133   ar
    80   131   130    1
    81    52    51    1
    82    52    55    1
    83   107   105   ar
    84   129   128    2
    85   130   127    1
    86    71    72    1
    87   127   128    1
    88   127   126    1
    89   103   105   ar
    90   103   102    1
    91    62    63    1
    92    63    64    1
    93   113   112    2
    94   102    99    1
    95   117   116    1
    96   117   118    1
    97    88    87    1
    98   125   124    1
    99   112   111    1
   100    99   100    1
   101    99    98    1
   102   120   118   am
   103   120   121    1
   104   118   119    2
   105    84    83    2
   106    81    82    1
   107   110   100   am
   108   110   111    1
   109   100   101    2
   110   124   121    1
   111   123   122    2
   112    98    91   am
   113   111   114    1
   114   121   122    1
   115   137   136    2
   116    87    86    1
   117    83    82    1
   118    83    89   am
   119    92    91    2
   120   135   136    1
   121   135   134    1
   122    86    85    1
   123    82    85    1
   124    91    90    1
   125   153   151    1
   126   114   115    1
   127   161   159   ar
   128   136   138   am
   129   144   143    2
   130   159   160   ar
   131   159   158    1
   132    90    89    1
   133    90    93    1
   134   152   151    1
   135   151   150    1
   136   158   155    1
   137   138   139    1
   138   143   145   am
   139   143   142    1
   140   150   147    1
   141   155   154    1
   142   155   156    1
   143   139   142    1
   144   139   140    1
   145    93    94    1
   146    80    78    1
   147   147   148    1
   148   147   146    1
   149    94    95    1
   150    78    77    1
   151   156   157    2
   152   140   141    2
   153   148   149    2
   154    79    77    1
   155    77    74    1
   156    95    97   ar
   157    95    96   ar
   158    74    75    1
   159    74    73    1
   160    75    76    2
