@<TRIPOS>MOLECULE
tmp/1u65A01.pdb
 252 251 0 0 0
SMALL
GASTEIGER

@<TRIPOS>ATOM
      1  N        -17.1560  104.4040   46.7880 N.3    67  TYR67      -0.1241
      2  CA       -17.4370  105.8050   47.0090 C.3    67  TYR67       0.1605
      3  C        -18.9460  105.8570   47.2550 C.2    67  TYR67       0.2264
      4  O        -19.7140  105.2590   46.5110 O.2    67  TYR67      -0.2867
      5  CB       -17.1020  106.6200   45.7610 C.3    67  TYR67       0.0534
      6  CG       -17.7510  107.9730   45.7980 C.ar   67  TYR67      -0.0201
      7  CD1      -17.2350  108.9880   46.6030 C.ar   67  TYR67      -0.0009
      8  CD2      -18.9560  108.2020   45.1320 C.ar   67  TYR67      -0.0009
      9  CE1      -17.9070  110.1910   46.7560 C.ar   67  TYR67       0.0417
     10  CE2      -19.6370  109.3980   45.2800 C.ar   67  TYR67       0.0417
     11  CZ       -19.1100  110.3860   46.0980 C.ar   67  TYR67       0.1957
     12  OH       -19.8130  111.5500   46.2960 O.3    67  TYR67      -0.2866
     13  N        -22.4280  107.9720   47.3880 N.3    69  ASP69      -0.1239
     14  CA       -23.0220  109.2220   46.9530 C.3    69  ASP69       0.1674
     15  C        -23.8140  109.8620   48.0900 C.2    69  ASP69       0.2266
     16  O        -24.7710  109.2780   48.6030 O.2    69  ASP69      -0.2867
     17  CB       -23.9360  109.0050   45.7450 C.3    69  ASP69       0.1410
     18  CG       -24.7950  110.2180   45.4520 C.2    69  ASP69       0.3668
     19  OD1      -24.3740  111.3380   45.8130 O.co2  69  ASP69      -0.2456
     20  OD2      -25.8810  110.0620   44.8600 O.co2  69  ASP69      -0.2456
     21  N        -24.6690  113.4370   47.8930 N.3    71  GLN71      -0.1245
     22  CA       -24.9440  114.7570   47.3420 C.3    71  GLN71       0.1566
     23  C        -26.3560  115.1820   47.6920 C.2    71  GLN71       0.2260
     24  O        -26.6580  116.3730   47.7460 O.2    71  GLN71      -0.2867
     25  CB       -24.8230  114.7240   45.8260 C.3    71  GLN71       0.0367
     26  CG       -23.4100  114.7040   45.2980 C.3    71  GLN71       0.0905
     27  CD       -22.8530  116.0960   45.1290 C.2    71  GLN71       0.2608
     28  OE1      -23.4800  116.9590   44.5000 O.2    71  GLN71      -0.2717
     29  NE2      -21.6660  116.3270   45.6830 N.am   71  GLN71      -0.0878
     30  N        -29.1640  103.8020   45.5420 N.3    81  TRP81      -0.1241
     31  CA       -28.0510  103.2010   44.8230 C.3    81  TRP81       0.1605
     32  C        -26.8660  102.9740   45.7410 C.2    81  TRP81       0.2264
     33  O        -25.9430  102.2320   45.4020 O.2    81  TRP81      -0.2867
     34  CB       -27.6410  104.0910   43.6490 C.3    81  TRP81       0.0550
     35  CG       -28.8010  104.4610   42.7620 C.ar   81  TRP81       0.0003
     36  CD1      -29.5080  105.6350   42.7770 C.ar   81  TRP81       0.0946
     37  CD2      -29.4020  103.6450   41.7450 C.ar   81  TRP81       0.0152
     38  NE1      -30.5070  105.5990   41.8310 N.ar   81  TRP81      -0.2442
     39  CE2      -30.4660  104.3920   41.1840 C.ar   81  TRP81       0.0810
     40  CE3      -29.1480  102.3570   41.2550 C.ar   81  TRP81       0.0012
     41  CZ2      -31.2700  103.8930   40.1560 C.ar   81  TRP81       0.0191
     42  CZ3      -29.9470  101.8610   40.2350 C.ar   81  TRP81       0.0001
     43  CH2      -30.9980  102.6310   39.6970 C.ar   81  TRP81       0.0015
     44  N        -24.7170   97.7450   37.7400 N.3   114  GLY114     -0.1210
     45  CA       -23.9550   98.8220   37.1330 C.3   114  GLY114      0.1956
     46  C        -23.3830   99.7290   38.2150 C.2   114  GLY114      0.2612
     47  O        -23.3380   99.3420   39.3880 O.2   114  GLY114     -0.2717
     48  N        -22.9490  100.9310   37.8340 N.am  115  GLY115     -0.1956
     49  CA       -22.3910  101.8530   38.8070 C.3   115  GLY115      0.1869
     50  C        -21.0660  102.4450   38.3640 C.2   115  GLY115      0.2309
     51  O        -20.2150  102.7770   39.1910 O.2   115  GLY115     -0.2863
     52  N        -17.1460  102.0190   39.6440 N.3   118  TYR118     -0.1227
     53  CA       -16.5850  102.5680   40.8850 C.3   118  TYR118      0.1736
     54  C        -17.5380  102.3180   42.0530 C.2   118  TYR118      0.2596
     55  O        -17.1990  102.5630   43.2070 O.2   118  TYR118     -0.2718
     56  CB       -16.3300  104.0800   40.7500 C.3   118  TYR118      0.0548
     57  CG       -17.5900  104.9080   40.7300 C.ar  118  TYR118     -0.0200
     58  CD1      -18.2240  105.2840   41.9120 C.ar  118  TYR118     -0.0009
     59  CD2      -18.1780  105.2680   39.5290 C.ar  118  TYR118     -0.0009
     60  CE1      -19.4190  105.9990   41.8950 C.ar  118  TYR118      0.0417
     61  CE2      -19.3710  105.9810   39.4940 C.ar  118  TYR118      0.0417
     62  CZ       -19.9880  106.3420   40.6800 C.ar  118  TYR118      0.1957
     63  OH       -21.1800  107.0340   40.6290 O.3   118  TYR118     -0.2866
     64  N        -18.7360  101.8380   41.7500 N.am  119  SER119     -0.1952
     65  CA       -19.7150  101.5770   42.7880 C.3   119  SER119      0.1924
     66  C        -20.6880  100.4790   42.3730 C.2   119  SER119      0.2314
     67  O        -20.6230   99.9690   41.2490 O.2   119  SER119     -0.2863
     68  CB       -20.4850  102.8600   43.0940 C.3   119  SER119      0.2116
     69  OG       -21.0530  103.3900   41.9040 O.3   119  SER119     -0.2180
     70  N        -32.9020   95.6680   43.0450 N.3   127  TYR127     -0.1241
     71  CA       -32.3850   94.4690   42.3810 C.3   127  TYR127      0.1605
     72  C        -32.8300   93.1970   43.0990 C.2   127  TYR127      0.2264
     73  O        -32.1290   92.1830   43.0490 O.2   127  TYR127     -0.2867
     74  CB       -30.8520   94.4380   42.3420 C.3   127  TYR127      0.0534
     75  CG       -30.1510   95.6300   41.7390 C.ar  127  TYR127     -0.0201
     76  CD1      -30.6520   96.2800   40.6110 C.ar  127  TYR127     -0.0009
     77  CD2      -28.9310   96.0590   42.2550 C.ar  127  TYR127     -0.0009
     78  CE1      -29.9440   97.3270   40.0120 C.ar  127  TYR127      0.0417
     79  CE2      -28.2220   97.0910   41.6670 C.ar  127  TYR127      0.0417
     80  CZ       -28.7270   97.7160   40.5490 C.ar  127  TYR127      0.1957
     81  OH       -27.9840   98.6980   39.9510 O.3   127  TYR127     -0.2866
     82  N        -26.9760   96.5580   33.7570 N.3   196  GLU196     -0.1231
     83  CA       -27.2560   97.9050   33.2830 C.3   196  GLU196      0.1699
     84  C        -26.0490   98.8080   33.4640 C.2   196  GLU196      0.2592
     85  O        -25.2590   98.6430   34.3900 O.2   196  GLU196     -0.2718
     86  CB       -28.4590   98.4780   34.0360 C.3   196  GLU196      0.0402
     87  CG       -29.0330   99.7680   33.4640 C.3   196  GLU196      0.1161
     88  CD       -28.5530  101.0300   34.1800 C.2   196  GLU196      0.3649
     89  OE1      -27.8780  100.9210   35.2240 O.co2 196  GLU196     -0.2457
     90  OE2      -28.8670  102.1380   33.6930 O.co2 196  GLU196     -0.2457
     91  N        -25.9110   99.7640   32.5610 N.am  197  SER197     -0.1952
     92  CA       -24.8100  100.7080   32.6110 C.3   197  SER197      0.1924
     93  C        -23.4830   99.9540   32.6660 C.2   197  SER197      0.2314
     94  O        -23.1840   99.1840   31.7590 O.2   197  SER197     -0.2863
     95  CB       -24.9740  101.6240   33.8210 C.3   197  SER197      0.2116
     96  OG       -24.2140  102.8030   33.6440 O.3   197  SER197     -0.2180
     97  N        -11.0520  110.2450   42.8010 N.3   276  TRP276     -0.1227
     98  CA       -11.4040  111.0890   41.6710 C.3   276  TRP276      0.1737
     99  C        -10.2560  111.9450   41.1740 C.2   276  TRP276      0.2595
    100  O        -10.2650  112.4060   40.0300 O.2   276  TRP276     -0.2718
    101  CB       -12.5830  111.9800   42.0280 C.3   276  TRP276      0.0564
    102  CG       -13.8000  111.2110   42.3650 C.ar  276  TRP276      0.0003
    103  CD1      -14.2670  110.9260   43.6130 C.ar  276  TRP276      0.0946
    104  CD2      -14.6990  110.5840   41.4440 C.ar  276  TRP276      0.0152
    105  NE1      -15.4080  110.1570   43.5280 N.ar  276  TRP276     -0.2442
    106  CE2      -15.6940  109.9330   42.2080 C.ar  276  TRP276      0.0810
    107  CE3      -14.7620  110.5080   40.0450 C.ar  276  TRP276      0.0012
    108  CZ2      -16.7390  109.2140   41.6220 C.ar  276  TRP276      0.0191
    109  CZ3      -15.8060  109.7900   39.4610 C.ar  276  TRP276      0.0001
    110  CH2      -16.7780  109.1540   40.2520 C.ar  276  TRP276      0.0015
    111  N         -9.2560  112.1380   42.0210 N.am  277  ASN277     -0.1974
    112  CA        -8.1220  112.9740   41.6630 C.3   277  ASN277      0.1688
    113  C         -7.2350  112.4850   40.5250 C.2   277  ASN277      0.2292
    114  O         -6.3620  113.2250   40.0670 O.2   277  ASN277     -0.2864
    115  CB        -7.2610  113.2220   42.8990 C.3   277  ASN277      0.1181
    116  CG        -8.0410  113.8600   44.0260 C.2   277  ASN277      0.2629
    117  OD1       -8.8910  114.7190   43.7950 O.2   277  ASN277     -0.2716
    118  ND2       -7.7500  113.4540   45.2540 N.am  277  ASN277     -0.0877
    119  N         -8.4050  111.2970   37.4040 N.3   279  LEU279     -0.1245
    120  CA        -8.9690  111.5600   36.0740 C.3   279  LEU279      0.1561
    121  C         -8.1300  112.6220   35.3610 C.2   279  LEU279      0.2260
    122  O         -7.6730  113.5750   35.9770 O.2   279  LEU279     -0.2867
    123  CB       -10.4110  112.0400   36.2040 C.3   279  LEU279      0.0270
    124  CG       -11.3850  110.9590   36.6710 C.3   279  LEU279      0.0019
    125  CD1      -12.6740  111.5940   37.1220 C.3   279  LEU279      0.0001
    126  CD2      -11.6290  109.9530   35.5360 C.3   279  LEU279      0.0001
    127  N         -9.1450  114.8160   33.1870 N.3   281  PHE281     -0.1227
    128  CA        -9.9020  116.0180   32.8660 C.3   281  PHE281      0.1736
    129  C        -10.9530  116.3990   33.8810 C.2   281  PHE281      0.2595
    130  O        -11.2580  115.6420   34.7940 O.2   281  PHE281     -0.2718
    131  CB       -10.6510  115.8240   31.5510 C.3   281  PHE281      0.0547
    132  CG        -9.7890  115.4470   30.3960 C.ar  281  PHE281     -0.0202
    133  CD1       -8.8400  116.3290   29.8990 C.ar  281  PHE281     -0.0042
    134  CD2       -9.9610  114.2180   29.7660 C.ar  281  PHE281     -0.0042
    135  CE1       -8.0640  115.9950   28.7740 C.ar  281  PHE281     -0.0003
    136  CE2       -9.1950  113.8720   28.6460 C.ar  281  PHE281     -0.0003
    137  CZ        -8.2430  114.7660   28.1480 C.ar  281  PHE281     -0.0000
    138  N        -11.4680  117.5980   33.7140 N.am  282  ASP282     -0.1960
    139  CA       -12.5650  118.0330   34.5220 C.3   282  ASP282      0.1840
    140  C        -13.7060  117.4540   33.7130 C.2   282  ASP282      0.2623
    141  O        -13.7490  117.6620   32.5060 O.2   282  ASP282     -0.2715
    142  CB       -12.7070  119.5490   34.6020 C.3   282  ASP282      0.1450
    143  CG       -11.7680  120.1610   35.6070 C.2   282  ASP282      0.3671
    144  OD1      -11.8000  121.3990   35.7580 O.co2 282  ASP282     -0.2456
    145  OD2      -10.9980  119.4090   36.2460 O.co2 282  ASP282     -0.2456
    146  N        -14.6290  116.7190   34.3180 N.am  283  SER283     -0.1936
    147  CA       -15.6570  116.0970   33.5030 C.3   283  SER283      0.2055
    148  C        -16.7760  115.3860   34.2350 C.2   283  SER283      0.2643
    149  O        -16.7330  115.1740   35.4440 O.2   283  SER283     -0.2714
    150  CB       -14.9980  115.0640   32.5960 C.3   283  SER283      0.2130
    151  OG       -14.5710  113.9270   33.3260 O.3   283  SER283     -0.2179
    152  N        -17.7840  115.0170   33.4570 N.am  284  ILE284     -0.1963
    153  CA       -18.8990  114.2470   33.9410 C.3   284  ILE284      0.1727
    154  C        -18.8920  112.9650   33.1360 C.2   284  ILE284      0.2616
    155  O        -18.3650  112.9310   32.0280 O.2   284  ILE284     -0.2715
    156  CB       -20.2590  114.9910   33.8530 C.3   284  ILE284      0.0290
    157  CG1      -20.5740  115.3340   32.4010 C.3   284  ILE284      0.0022
    158  CG2      -20.2580  116.2480   34.7060 C.3   284  ILE284      0.0023
    159  CD1      -21.8430  116.1420   32.2220 C.3   284  ILE284      0.0001
    160  N        -19.4810  111.9150   33.6910 N.am  285  PHE285     -0.1960
    161  CA       -19.5300  110.6160   33.0450 C.3   285  PHE285      0.1771
    162  C        -18.1490  110.0590   32.6990 C.2   285  PHE285      0.2619
    163  O        -17.9220  109.5660   31.6010 O.2   285  PHE285     -0.2715
    164  CB       -20.3930  110.6560   31.7890 C.3   285  PHE285      0.0574
    165  CG       -21.2760  109.4510   31.6380 C.ar  285  PHE285     -0.0200
    166  CD1      -20.7880  108.1750   31.9240 C.ar  285  PHE285     -0.0042
    167  CD2      -22.6060  109.5870   31.2350 C.ar  285  PHE285     -0.0042
    168  CE1      -21.6150  107.0600   31.8160 C.ar  285  PHE285     -0.0003
    169  CE2      -23.4400  108.4760   31.1220 C.ar  285  PHE285     -0.0003
    170  CZ       -22.9500  107.2150   31.4130 C.ar  285  PHE285     -0.0000
    171  N        -17.2270  110.1510   33.6470 N.am  286  ARG286     -0.1963
    172  CA       -15.8830  109.6050   33.4830 C.3   286  ARG286      0.1729
    173  C        -15.5030  108.9820   34.8190 C.2   286  ARG286      0.2616
    174  O        -15.6740  109.5950   35.8740 O.2   286  ARG286     -0.2715
    175  CB       -14.8830  110.6910   33.0810 C.3   286  ARG286      0.0348
    176  CG       -14.9600  111.0630   31.6090 C.3   286  ARG286      0.0492
    177  CD       -14.5130  109.9190   30.7140 C.3   286  ARG286      0.2205
    178  NE       -14.6220  110.2590   29.2950 N.pl3 286  ARG286     -0.0865
    179  CZ       -15.7740  110.3840   28.6390 C.cat 286  ARG286      0.5346
    180  NH1      -16.9210  110.1900   29.2710 N.pl3 286  ARG286      0.1354
    181  NH2      -15.7830  110.7130   27.3510 N.pl3 286  ARG286      0.1354
    182  N        -14.9790  107.7640   34.7760 N.am  287  PHE287     -0.1974
    183  CA       -14.6510  107.0670   36.0060 C.3   287  PHE287      0.1639
    184  C        -13.1870  106.6760   36.0900 C.2   287  PHE287      0.2290
    185  O        -12.5970  106.2140   35.1180 O.2   287  PHE287     -0.2864
    186  CB       -15.6330  105.8760   36.1740 C.3   287  PHE287      0.0560
    187  CG       -17.0280  106.2750   35.7650 C.ar  287  PHE287     -0.0200
    188  CD1      -17.7280  107.2080   36.5440 C.ar  287  PHE287     -0.0042
    189  CD2      -17.6370  105.7790   34.6120 C.ar  287  PHE287     -0.0042
    190  CE1      -19.0080  107.6140   36.1720 C.ar  287  PHE287     -0.0003
    191  CE2      -18.9190  106.2090   34.2340 C.ar  287  PHE287     -0.0003
    192  CZ       -19.6020  107.1150   35.0170 C.ar  287  PHE287     -0.0000
    193  N        -29.2990  112.4960   34.4640 N.3   327  PHE327     -0.1227
    194  CA       -28.7680  112.1590   35.7810 C.3   327  PHE327      0.1736
    195  C        -27.3580  112.7180   36.0360 C.2   327  PHE327      0.2595
    196  O        -27.0540  113.2080   37.1290 O.2   327  PHE327     -0.2718
    197  CB       -28.7750  110.6380   35.9450 C.3   327  PHE327      0.0547
    198  CG       -29.0110  110.1600   37.3520 C.ar  327  PHE327     -0.0202
    199  CD1      -28.9020  111.0230   38.4390 C.ar  327  PHE327     -0.0042
    200  CD2      -29.3550  108.8250   37.5860 C.ar  327  PHE327     -0.0042
    201  CE1      -29.1310  110.5660   39.7380 C.ar  327  PHE327     -0.0003
    202  CE2      -29.5850  108.3570   38.8810 C.ar  327  PHE327     -0.0003
    203  CZ       -29.4720  109.2280   39.9580 C.ar  327  PHE327     -0.0000
    204  N        -26.4960  112.6450   35.0290 N.am  328  PHE328     -0.1976
    205  CA       -25.1350  113.1280   35.1930 C.3   328  PHE328      0.1639
    206  C        -24.9970  114.6490   35.1920 C.2   328  PHE328      0.2290
    207  O        -24.1590  115.1880   35.9100 O.2   328  PHE328     -0.2864
    208  CB       -24.2390  112.4740   34.1370 C.3   328  PHE328      0.0560
    209  CG       -24.2450  110.9790   34.2210 C.ar  328  PHE328     -0.0200
    210  CD1      -25.3120  110.2500   33.7040 C.ar  328  PHE328     -0.0042
    211  CD2      -23.2610  110.3070   34.9470 C.ar  328  PHE328     -0.0042
    212  CE1      -25.4080  108.8770   33.9170 C.ar  328  PHE328     -0.0003
    213  CE2      -23.3470  108.9330   35.1690 C.ar  328  PHE328     -0.0003
    214  CZ       -24.4230  108.2180   34.6560 C.ar  328  PHE328     -0.0000
    215  N        -25.6830  116.1510   38.5710 N.3   331  TYR331     -0.1227
    216  CA       -24.5300  116.0060   39.4510 C.3   331  TYR331      0.1736
    217  C        -23.2710  116.7840   39.0780 C.2   331  TYR331      0.2596
    218  O        -22.4640  117.0810   39.9480 O.2   331  TYR331     -0.2718
    219  CB       -24.1430  114.5310   39.5300 C.3   331  TYR331      0.0548
    220  CG       -24.9770  113.7310   40.5250 C.ar  331  TYR331     -0.0200
    221  CD1      -26.3330  113.5270   40.3020 C.ar  331  TYR331     -0.0009
    222  CD2      -24.4140  113.2010   41.6810 C.ar  331  TYR331     -0.0009
    223  CE1      -27.1120  112.8120   41.2160 C.ar  331  TYR331      0.0417
    224  CE2      -25.1770  112.4930   42.5940 C.ar  331  TYR331      0.0417
    225  CZ       -26.5260  112.2990   42.3570 C.ar  331  TYR331      0.1957
    226  OH       -27.2810  111.5770   43.2540 O.3   331  TYR331     -0.2866
    227  N        -23.0450  117.1130   37.8050 N.am  332  GLY332     -0.1957
    228  CA       -21.7850  117.7760   37.4160 C.3   332  GLY332      0.1869
    229  C        -21.8220  119.1140   36.6140 C.2   332  GLY332      0.2309
    230  O        -20.9100  119.9290   36.7500 O.2   332  GLY332     -0.2863
    231  N        -17.4850  119.7950   29.8050 N.3   355  LEU355     -0.1245
    232  CA       -17.5040  118.7310   30.7960 C.3   355  LEU355      0.1561
    233  C        -17.9880  117.4240   30.1940 C.2   355  LEU355      0.2260
    234  O        -17.5350  116.3560   30.5960 O.2   355  LEU355     -0.2867
    235  CB       -18.4190  119.1120   31.9500 C.3   355  LEU355      0.0270
    236  CG       -17.8840  120.2460   32.8150 C.3   355  LEU355      0.0019
    237  CD1      -18.9500  120.6830   33.8190 C.3   355  LEU355      0.0001
    238  CD2      -16.6190  119.7770   33.5240 C.3   355  LEU355      0.0001
    239  N        -31.4620  107.6520   33.4590 N.3   437  HIS437     -0.1226
    240  CA       -30.5300  106.5480   33.3280 C.3   437  HIS437      0.1752
    241  C        -30.7230  105.6020   34.5160 C.2   437  HIS437      0.2596
    242  O        -30.6780  106.0220   35.6760 O.2   437  HIS437     -0.2718
    243  CB       -29.1060  107.1190   33.3220 C.3   437  HIS437      0.0759
    244  CG       -28.0310  106.1060   33.0780 C.ar  437  HIS437      0.0818
    245  ND1      -27.9300  105.3910   31.9040 N.ar  437  HIS437     -0.2268
    246  CD2      -26.9650  105.7430   33.8320 C.ar  437  HIS437      0.1154
    247  CE1      -26.8480  104.6350   31.9430 C.ar  437  HIS437      0.1986
    248  NE2      -26.2430  104.8310   33.1020 N.ar  437  HIS437     -0.2212
    249  N        -30.9620  104.3270   34.2220 N.am  438  GLY438     -0.1957
    250  CA       -31.1430  103.3430   35.2760 C.3   438  GLY438      0.1869
    251  C        -32.5520  103.1490   35.8030 C.2   438  GLY438      0.2309
    252  O        -32.7880  102.2430   36.6010 O.2   438  GLY438     -0.2863
@<TRIPOS>BOND
     1   181   179    1
     2   137   136   ar
     3   137   135   ar
     4   179   180    1
     5   179   178    2
     6   136   134   ar
     7   135   133   ar
     8   178   177    1
     9   134   132   ar
    10   231   232    1
    11   133   132   ar
    12   233   234    2
    13   233   232    1
    14   132   131    1
    15   177   176    1
    16   232   235    1
    17   169   167   ar
    18   169   170   ar
    19   167   165   ar
    20   170   168   ar
    21   131   128    1
    22   163   162    2
    23   176   175    1
    24   165   164    1
    25   165   166   ar
    26    94    93    2
    27   164   161    1
    28   168   166   ar
    29   245   247   ar
    30   245   244   ar
    31   247   248   ar
    32   235   236    1
    33   155   154    2
    34   159   157    1
    35   157   156    1
    36   141   140    2
    37    91    92    1
    38    91    84   am
    39   150   151    1
    40   150   147    1
    41    92    93    1
    42    92    95    1
    43   162   161    1
    44   162   171   am
    45   236   238    1
    46   236   237    1
    47   128   127    1
    48   128   129    1
    49   161   160    1
    50   244   243    1
    51   244   246   ar
    52   175   172    1
    53   248   246   ar
    54   154   160   am
    55   154   153    1
    56    83    84    1
    57    83    82    1
    58    83    86    1
    59   243   240    1
    60   240   239    1
    61   240   241    1
    62   152   153    1
    63   152   148   am
    64    84    85    2
    65    87    86    1
    66    87    88    1
    67   172   171    1
    68   172   173    1
    69   147   148    1
    70   147   146    1
    71    96    95    1
    72    90    88   ar
    73   210   212   ar
    74   210   209   ar
    75   140   146   am
    76   140   139    1
    77   138   129   am
    78   138   139    1
    79   156   153    1
    80   156   158    1
    81   129   130    2
    82   212   214   ar
    83   208   209    1
    84   208   205    1
    85    88    89   ar
    86   209   211   ar
    87   249   241   am
    88   249   250    1
    89   191   189   ar
    90   191   192   ar
    91   148   149    2
    92   193   194    1
    93   241   242    2
    94   139   142    1
    95   142   143    1
    96   189   187   ar
    97   214   213   ar
    98   182   173   am
    99   182   183    1
   100   173   174    2
   101   211   213   ar
   102   192   190   ar
   103   204   205    1
   104   204   195   am
   105   185   184    2
   106   206   205    1
   107   206   207    2
   108   250   251    1
   109   121   122    2
   110   121   120    1
   111   126   124    1
   112   143   144   ar
   113   143   145   ar
   114   187   186    1
   115   187   188   ar
   116   194   197    1
   117   194   195    1
   118   251   252    2
   119   197   198    1
   120   183   184    1
   121   183   186    1
   122   195   196    2
   123   120   123    1
   124   120   119    1
   125   190   188   ar
   126   123   124    1
   127   229   230    2
   128   229   228    1
   129   124   125    1
   130    45    44    1
   131    45    46    1
   132   198   200   ar
   133   198   199   ar
   134   228   227    1
   135   200   202   ar
   136   227   217   am
   137    48    46   am
   138    48    49    1
   139    46    47    2
   140    50    49    1
   141    50    51    2
   142   199   201   ar
   143   215   216    1
   144   202   203   ar
   145   217   216    1
   146   217   218    2
   147   216   219    1
   148   109   107   ar
   149   109   110   ar
   150    61    59   ar
   151    61    62   ar
   152    59    57   ar
   153   219   220    1
   154    52    53    1
   155    43    41   ar
   156    43    42   ar
   157   201   203   ar
   158    81    80    1
   159    78    80   ar
   160    78    76   ar
   161   100    99    2
   162   107   104   ar
   163   114   113    2
   164    41    39   ar
   165    42    40   ar
   166   110   108   ar
   167   221   220   ar
   168   221   223   ar
   169   220   222   ar
   170   113   112    1
   171    80    79   ar
   172    76    75   ar
   173    63    62    1
   174    62    60   ar
   175    57    56    1
   176    57    58   ar
   177    56    53    1
   178    53    54    1
   179    99    98    1
   180    99   111   am
   181    39    37   ar
   182    39    38   ar
   183   223   225   ar
   184    67    66    2
   185    40    37   ar
   186   104   106   ar
   187   104   102   ar
   188   108   106   ar
   189   112   111    1
   190   112   115    1
   191    79    77   ar
   192    98   101    1
   193    98    97    1
   194   222   224   ar
   195    75    77   ar
   196    75    74    1
   197    37    35   ar
   198    64    54   am
   199    64    65    1
   200    38    36   ar
   201    60    58   ar
   202    69    68    1
   203   101   102    1
   204    54    55    2
   205   106   105   ar
   206    74    71    1
   207   225   224   ar
   208   225   226    1
   209   102   103   ar
   210    66    65    1
   211    71    70    1
   212    71    72    1
   213    35    36   ar
   214    35    34    1
   215    65    68    1
   216   115   116    1
   217    73    72    2
   218   105   103   ar
   219    34    31    1
   220   117   116    2
   221   116   118   am
   222    28    27    2
   223    31    30    1
   224    31    32    1
   225    20    18   ar
   226    27    26    1
   227    27    29   am
   228     8    10   ar
   229     8     6   ar
   230    10    11   ar
   231    26    25    1
   232    33    32    2
   233    18    17    1
   234    18    19   ar
   235    17    14    1
   236     5     6    1
   237     5     2    1
   238     6     7   ar
   239    25    22    1
   240    11    12    1
   241    11     9   ar
   242     4     3    2
   243     7     9   ar
   244     1     2    1
   245    14    13    1
   246    14    15    1
   247     2     3    1
   248    22    23    1
   249    22    21    1
   250    23    24    2
   251    15    16    2
