@<TRIPOS>MOLECULE
tmp/1u65A00.pdb
 110 104 0 0 0
SMALL
GASTEIGER

@<TRIPOS>ATOM
      1  N        -34.4700  109.3500   48.6500 N.3    76  SER76      -0.1217
      2  CA       -34.5200  108.0190   48.0500 C.3    76  SER76       0.1889
      3  C        -33.9640  107.9810   46.6320 C.2    76  SER76       0.2288
      4  O        -33.3120  107.0130   46.2360 O.2    76  SER76      -0.2866
      5  CB       -35.9540  107.4900   48.0530 C.3    76  SER76       0.2089
      6  OG       -36.7200  108.1350   47.0590 O.3    76  SER76      -0.2183
      7  N        -31.0310  105.1770   46.8760 N.3    80  MET80      -0.1245
      8  CA       -31.4210  103.8330   46.4660 C.3    80  MET80       0.1570
      9  C        -30.2910  103.1380   45.7160 C.2    80  MET80       0.2261
     10  O        -30.4430  101.9890   45.2900 O.2    80  MET80      -0.2867
     11  CB       -32.6840  103.8820   45.6040 C.3    80  MET80       0.0387
     12  CG       -32.4690  104.4770   44.2220 C.3    80  MET80       0.0595
     13  SD       -34.0160  104.7720   43.3430 S.3    80  MET80      -0.1393
     14  CE       -33.8930  103.5650   42.0270 C.3    80  MET80       0.0692
     15  N        -34.0000   97.6260   44.6700 N.3   126  VAL126     -0.1245
     16  CA       -34.3540   97.6390   43.2570 C.3   126  VAL126      0.1561
     17  C        -33.8510   96.4120   42.4780 C.2   126  VAL126      0.2260
     18  O        -34.3230   96.1450   41.3760 O.2   126  VAL126     -0.2867
     19  CB       -33.8450   98.9420   42.5870 C.3   126  VAL126      0.0252
     20  CG1      -32.3430   98.8680   42.3680 C.3   126  VAL126      0.0019
     21  CG2      -34.5860   99.1890   41.2900 C.3   126  VAL126      0.0019
     22  N        -44.6170  107.5680   39.7780 N.3   426  ASN426     -0.1225
     23  CA       -44.1960  107.9280   41.1240 C.3   426  ASN426      0.1785
     24  C        -42.7330  108.3530   41.2620 C.2   426  ASN426      0.2597
     25  O        -42.2200  108.4390   42.3770 O.2   426  ASN426     -0.2718
     26  CB       -44.4460  106.7450   42.0420 C.3   426  ASN426      0.1169
     27  CG       -43.9340  105.4550   41.4510 C.2   426  ASN426      0.2627
     28  OD1      -42.9080  105.4400   40.7660 O.2   426  ASN426     -0.2716
     29  ND2      -44.6390  104.3590   41.7130 N.am  426  ASN426     -0.0877
     30  N        -42.0660  108.6140   40.1420 N.am  427  LEU427     -0.1966
     31  CA       -40.6580  109.0070   40.1600 C.3   427  LEU427      0.1728
     32  C        -40.3980  110.1410   41.1630 C.2   427  LEU427      0.2616
     33  O        -41.1080  111.1520   41.1670 O.2   427  LEU427     -0.2715
     34  CB       -40.2350  109.4390   38.7540 C.3   427  LEU427      0.0311
     35  CG       -38.7690  109.2280   38.3730 C.3   427  LEU427      0.0022
     36  CD1      -38.4530  107.7400   38.3490 C.3   427  LEU427      0.0001
     37  CD2      -38.5090  109.8250   37.0030 C.3   427  LEU427      0.0001
     38  N        -39.3910  109.9760   42.0160 N.am  428  VAL428     -0.1977
     39  CA       -39.0820  111.0080   43.0010 C.3   428  VAL428      0.1596
     40  C        -38.3110  112.1970   42.4210 C.2   428  VAL428      0.2287
     41  O        -38.2990  113.2700   43.0230 O.2   428  VAL428     -0.2864
     42  CB       -38.2830  110.4450   44.1970 C.3   428  VAL428      0.0276
     43  CG1      -39.1400  109.4800   44.9890 C.3   428  VAL428      0.0022
     44  CG2      -37.0320  109.7480   43.7040 C.3   428  VAL428      0.0022
     45  N        -33.5030  103.9680   35.3700 N.3   439  TYR439     -0.1241
     46  CA       -34.8530  103.8060   35.8870 C.3   439  TYR439      0.1605
     47  C        -35.7680  102.8720   35.1260 C.2   439  TYR439      0.2264
     48  O        -36.9810  102.9410   35.2640 O.2   439  TYR439     -0.2867
     49  CB       -35.5120  105.1640   36.0950 C.3   439  TYR439      0.0534
     50  CG       -34.9450  105.8230   37.3210 C.ar  439  TYR439     -0.0201
     51  CD1      -33.6720  106.4090   37.3000 C.ar  439  TYR439     -0.0009
     52  CD2      -35.6050  105.7300   38.5450 C.ar  439  TYR439     -0.0009
     53  CE1      -33.0750  106.8660   38.4670 C.ar  439  TYR439      0.0417
     54  CE2      -35.0120  106.1840   39.7140 C.ar  439  TYR439      0.0417
     55  CZ       -33.7530  106.7430   39.6640 C.ar  439  TYR439      0.1957
     56  OH       -33.1640  107.1570   40.8250 O.3   439  TYR439     -0.2866
     57  N        -36.3280   99.1410   37.7080 N.3   442  GLU442     -0.1245
     58  CA       -37.4570   98.8450   38.5800 C.3   442  GLU442      0.1567
     59  C        -38.5610   98.0910   37.8280 C.2   442  GLU442      0.2260
     60  O        -39.3230   97.3340   38.4290 O.2   442  GLU442     -0.2867
     61  CB       -37.9950  100.1360   39.2060 C.3   442  GLU442      0.0388
     62  CG       -38.2560  101.2660   38.2300 C.3   442  GLU442      0.1160
     63  CD       -38.5710  102.5820   38.9370 C.2   442  GLU442      0.3649
     64  OE1      -37.6870  103.1090   39.6520 O.co2 442  GLU442     -0.2457
     65  OE2      -39.7020  103.0890   38.7780 O.co2 442  GLU442     -0.2457
     66  N        -41.1010   95.8860   40.1630 N.3   447  LEU447     -0.1245
     67  CA       -41.5610   96.4850   41.3990 C.3   447  LEU447      0.1561
     68  C        -42.9680   97.0380   41.2050 C.2   447  LEU447      0.2260
     69  O        -43.7120   97.1940   42.1720 O.2   447  LEU447     -0.2867
     70  CB       -40.6210   97.5970   41.8580 C.3   447  LEU447      0.0270
     71  CG       -39.1940   97.1730   42.2150 C.3   447  LEU447      0.0019
     72  CD1      -38.5640   98.1810   43.1690 C.3   447  LEU447      0.0001
     73  CD2      -39.1720   95.7740   42.8300 C.3   447  LEU447      0.0001
     74  N        -48.0470   98.1610   47.1880 N.3   452  GLU452     -0.1231
     75  CA       -47.6550   99.1490   48.1890 C.3   452  GLU452      0.1699
     76  C        -46.6980  100.2100   47.6540 C.2   452  GLU452      0.2592
     77  O        -46.4610  101.2130   48.3150 O.2   452  GLU452     -0.2718
     78  CB       -46.9970   98.4640   49.3890 C.3   452  GLU452      0.0402
     79  CG       -47.8620   97.3860   50.0500 C.3   452  GLU452      0.1161
     80  CD       -47.8780   96.0570   49.3200 C.2   452  GLU452      0.3649
     81  OE1      -48.2430   95.0450   49.9400 O.co2 452  GLU452     -0.2457
     82  OE2      -47.5300   96.0470   48.1170 O.co2 452  GLU452     -0.2457
     83  N        -46.1400   99.9850   46.4680 N.am  453  LEU453     -0.1966
     84  CA       -45.2080  100.9380   45.8760 C.3   453  LEU453      0.1728
     85  C        -45.9210  101.9860   45.0400 C.2   453  LEU453      0.2616
     86  O        -45.3010  102.6880   44.2410 O.2   453  LEU453     -0.2715
     87  CB       -44.1710  100.2050   45.0310 C.3   453  LEU453      0.0311
     88  CG       -43.1510   99.4120   45.8450 C.3   453  LEU453      0.0022
     89  CD1      -42.1910   98.6420   44.9400 C.3   453  LEU453      0.0001
     90  CD2      -42.3680  100.3280   46.7700 C.3   453  LEU453      0.0001
     91  N        -47.2310  102.0740   45.2380 N.am  454  ASN454     -0.1958
     92  CA       -48.1230  103.0320   44.5560 C.3   454  ASN454      0.1819
     93  C        -47.8050  103.3960   43.0900 C.2   454  ASN454      0.2621
     94  O        -47.6140  104.5690   42.7500 O.2   454  ASN454     -0.2715
     95  CB       -48.1860  104.3040   45.4110 C.3   454  ASN454      0.1195
     96  CG       -48.8390  104.0420   46.7640 C.2   454  ASN454      0.2630
     97  OD1      -49.8650  103.3630   46.8340 O.2   454  ASN454     -0.2716
     98  ND2      -48.2660  104.5730   47.8390 N.am  454  ASN454     -0.0877
     99  N        -47.7490  102.3810   42.2270 N.am  455  TYR455     -0.1974
    100  CA       -47.5390  102.5800   40.8190 C.3   455  TYR455      0.1639
    101  C        -48.9420  102.5620   40.2040 C.2   455  TYR455      0.2290
    102  O        -49.9080  102.4240   40.9470 O.2   455  TYR455     -0.2864
    103  CB       -46.7470  101.4550   40.1810 C.3   455  TYR455      0.0560
    104  CG       -45.2500  101.5450   40.3010 C.ar  455  TYR455     -0.0198
    105  CD1      -44.5240  102.3360   39.4130 C.ar  455  TYR455     -0.0009
    106  CD2      -44.5500  100.8340   41.2790 C.ar  455  TYR455     -0.0009
    107  CE1      -43.1380  102.4090   39.4870 C.ar  455  TYR455      0.0417
    108  CE2      -43.1600  100.9020   41.3640 C.ar  455  TYR455      0.0417
    109  CZ       -42.4650  101.6870   40.4620 C.ar  455  TYR455      0.1957
    110  OH       -41.0950  101.7520   40.5430 O.3   455  TYR455     -0.2866
@<TRIPOS>BOND
     1    47    48    2
     2    47    46    1
     3    45    46    1
     4    46    49    1
     5    49    50    1
     6    37    35    1
     7    51    50   ar
     8    51    53   ar
     9    50    52   ar
    10    57    58    1
    11    59    60    2
    12    59    58    1
    13    62    63    1
    14    62    61    1
    15    36    35    1
    16    35    34    1
    17    53    55   ar
    18    52    54   ar
    19    58    61    1
    20    34    31    1
    21    65    63   ar
    22    63    64   ar
    23   105   107   ar
    24   105   104   ar
    25   107   109   ar
    26    55    54   ar
    27    55    56    1
    28    22    23    1
    29    30    31    1
    30    30    24   am
    31    31    32    1
    32    66    67    1
    33   103   104    1
    34   103   100    1
    35   101   100    1
    36   101   102    2
    37   104   106   ar
    38   109   110    1
    39   109   108   ar
    40    28    27    2
    41   100    99    1
    42    23    24    1
    43    23    26    1
    44    32    33    2
    45    32    38   am
    46    68    67    1
    47    68    69    2
    48    24    25    2
    49   106   108   ar
    50    21    19    1
    51    18    17    2
    52    67    70    1
    53    27    29   am
    54    27    26    1
    55    70    71    1
    56    38    39    1
    57    14    13    1
    58    71    73    1
    59    71    72    1
    60    99    93   am
    61    20    19    1
    62    40    39    1
    63    40    41    2
    64    17    16    1
    65    19    16    1
    66    94    93    2
    67    39    42    1
    68    93    92    1
    69    16    15    1
    70    13    12    1
    71    44    42    1
    72    42    43    1
    73    12    11    1
    74    86    85    2
    75    92    91    1
    76    92    95    1
    77    89    88    1
    78    87    88    1
    79    87    84    1
    80    85    91   am
    81    85    84    1
    82    10     9    2
    83    95    96    1
    84    11     8    1
    85     9     8    1
    86    88    90    1
    87    84    83    1
    88     4     3    2
    89     8     7    1
    90    83    76   am
    91     3     2    1
    92    96    97    2
    93    96    98   am
    94     6     5    1
    95    74    75    1
    96    76    75    1
    97    76    77    2
    98     2     5    1
    99     2     1    1
   100    82    80   ar
   101    75    78    1
   102    80    81   ar
   103    80    79    1
   104    78    79    1
