@<TRIPOS>MOLECULE
tmp/1u67A08.pdb
 203 193 0 0 0
SMALL
GASTEIGER

@<TRIPOS>ATOM
      1  N        258.5900  117.2180  -43.7920 N.3    62  LEU62      -0.1245
      2  CA       258.9870  115.9060  -43.2770 C.3    62  LEU62       0.1561
      3  C        259.5590  114.9520  -44.3270 C.2    62  LEU62       0.2260
      4  O        260.2020  113.9680  -43.9880 O.2    62  LEU62      -0.2867
      5  CB       257.8060  115.2450  -42.5670 C.3    62  LEU62       0.0270
      6  CG       257.5900  115.7170  -41.1320 C.3    62  LEU62       0.0019
      7  CD1      256.2070  115.3440  -40.7060 C.3    62  LEU62       0.0001
      8  CD2      258.6280  115.0990  -40.1910 C.3    62  LEU62       0.0001
      9  N        259.5620  115.0740  -32.1580 N.3    82  MET82      -0.1245
     10  CA       258.9830  113.8070  -31.7550 C.3    82  MET82       0.1570
     11  C        257.9910  114.0390  -30.6440 C.2    82  MET82       0.2261
     12  O        256.8880  113.4960  -30.6640 O.2    82  MET82      -0.2867
     13  CB       260.0560  112.8650  -31.2480 C.3    82  MET82       0.0387
     14  CG       259.5380  111.4620  -30.9150 C.3    82  MET82       0.0595
     15  SD       259.0340  110.4860  -32.3650 S.3    82  MET82      -0.1393
     16  CE       257.3140  110.1570  -31.9690 C.3    82  MET82       0.0692
     17  N        255.1070  115.8840  -32.3020 N.3    85  VAL85      -0.1245
     18  CA       254.3280  115.0000  -33.1530 C.3    85  VAL85       0.1561
     19  C        253.3680  114.1740  -32.2730 C.2    85  VAL85       0.2260
     20  O        252.1930  114.0020  -32.6080 O.2    85  VAL85      -0.2867
     21  CB       255.2710  114.0800  -33.9730 C.3    85  VAL85       0.0252
     22  CG1      255.6010  112.8120  -33.2040 C.3    85  VAL85       0.0019
     23  CG2      254.6450  113.7690  -35.3050 C.3    85  VAL85       0.0019
     24  N        249.3270  115.1510  -32.1510 N.3    89  ARG89      -0.1245
     25  CA       248.6150  114.0550  -32.7770 C.3    89  ARG89       0.1563
     26  C        247.5600  113.4360  -31.8600 C.2    89  ARG89       0.2260
     27  O        246.3590  113.5000  -32.1230 O.2    89  ARG89      -0.2867
     28  CB       249.6100  112.9860  -33.1870 C.3    89  ARG89       0.0307
     29  CG       249.4350  112.5130  -34.5940 C.3    89  ARG89       0.0489
     30  CD       250.1420  113.3940  -35.5790 C.3    89  ARG89       0.2205
     31  NE       249.2490  113.7990  -36.6540 N.pl3  89  ARG89      -0.0865
     32  CZ       249.6040  113.9020  -37.9330 C.cat  89  ARG89       0.5346
     33  NH1      250.8420  113.6220  -38.3120 N.pl3  89  ARG89       0.1354
     34  NH2      248.7190  114.2960  -38.8410 N.pl3  89  ARG89       0.1354
     35  N        250.3900   92.0630  -35.4550 N.3   174  PHE174     -0.1241
     36  CA       250.2720   93.1600  -34.5040 C.3   174  PHE174      0.1605
     37  C        248.8480   93.7320  -34.3270 C.2   174  PHE174      0.2264
     38  O        248.3050   93.7490  -33.2150 O.2   174  PHE174     -0.2867
     39  CB       251.2210   94.2940  -34.9180 C.3   174  PHE174      0.0534
     40  CG       251.0940   95.5300  -34.0690 C.ar  174  PHE174     -0.0203
     41  CD1      251.6370   95.5680  -32.7900 C.ar  174  PHE174     -0.0042
     42  CD2      250.3540   96.6200  -34.5160 C.ar  174  PHE174     -0.0042
     43  CE1      251.4370   96.6640  -31.9700 C.ar  174  PHE174     -0.0003
     44  CE2      250.1490   97.7080  -33.7130 C.ar  174  PHE174     -0.0003
     45  CZ       250.6880   97.7340  -32.4330 C.ar  174  PHE174     -0.0000
     46  N        257.4030   99.0720  -33.1930 N.3   313  VAL313     -0.1231
     47  CA       256.3100   99.6870  -33.9330 C.3   313  VAL313      0.1692
     48  C        256.5960  101.1490  -34.2640 C.2   313  VAL313      0.2591
     49  O        256.4200  101.5810  -35.3930 O.2   313  VAL313     -0.2718
     50  CB       254.9710   99.5830  -33.1660 C.3   313  VAL313      0.0266
     51  CG1      253.8620  100.2400  -33.9600 C.3   313  VAL313      0.0020
     52  CG2      254.6200   98.1370  -32.9500 C.3   313  VAL313      0.0020
     53  N        257.0420  101.9160  -33.2860 N.am  314  ILE314     -0.1980
     54  CA       257.3370  103.3120  -33.5480 C.3   314  ILE314      0.1595
     55  C        258.6450  103.5630  -34.3380 C.2   314  ILE314      0.2287
     56  O        258.6070  103.9770  -35.5000 O.2   314  ILE314     -0.2864
     57  CB       257.3890  104.0940  -32.2330 C.3   314  ILE314      0.0276
     58  CG1      256.0350  104.0190  -31.5420 C.3   314  ILE314      0.0022
     59  CG2      257.7810  105.5210  -32.5030 C.3   314  ILE314      0.0022
     60  CD1      255.9560  104.8310  -30.2870 C.3   314  ILE314      0.0001
     61  N        258.5650  100.2800  -37.5010 N.3   317  TYR317     -0.1227
     62  CA       257.3280  100.0210  -38.2190 C.3   317  TYR317      0.1736
     63  C        256.7450  101.3560  -38.7200 C.2   317  TYR317      0.2595
     64  O        256.6090  101.5910  -39.9230 O.2   317  TYR317     -0.2718
     65  CB       256.3450   99.3060  -37.2870 C.3   317  TYR317      0.0548
     66  CG       254.9620   99.1050  -37.8480 C.ar  317  TYR317     -0.0200
     67  CD1      254.6460   97.9730  -38.5880 C.ar  317  TYR317     -0.0009
     68  CD2      253.9570  100.0440  -37.6140 C.ar  317  TYR317     -0.0009
     69  CE1      253.3510   97.7710  -39.0790 C.ar  317  TYR317      0.0417
     70  CE2      252.6640   99.8620  -38.0990 C.ar  317  TYR317      0.0417
     71  CZ       252.3610   98.7200  -38.8320 C.ar  317  TYR317      0.1957
     72  OH       251.0760   98.5310  -39.3090 O.3   317  TYR317     -0.2866
     73  N        256.4190  102.2350  -37.7820 N.am  318  ALA318     -0.1980
     74  CA       255.8610  103.5340  -38.1120 C.3   318  ALA318      0.1597
     75  C        256.7920  104.2830  -39.0550 C.2   318  ALA318      0.2287
     76  O        256.3390  104.8800  -40.0230 O.2   318  ALA318     -0.2864
     77  CB       255.6390  104.3320  -36.8430 C.3   318  ALA318      0.0319
     78  N        256.5260  103.1790  -42.7330 N.3   321  LEU321     -0.1231
     79  CA       255.2260  103.5720  -43.2250 C.3   321  LEU321      0.1693
     80  C        255.1640  105.0550  -43.5680 C.2   321  LEU321      0.2592
     81  O        254.8080  105.4230  -44.6930 O.2   321  LEU321     -0.2718
     82  CB       254.1340  103.2380  -42.1910 C.3   321  LEU321      0.0284
     83  CG       252.6790  103.4910  -42.6270 C.3   321  LEU321      0.0019
     84  CD1      252.2880  102.4340  -43.6330 C.3   321  LEU321      0.0001
     85  CD2      251.7390  103.4830  -41.4360 C.3   321  LEU321      0.0001
     86  N        255.5090  105.8940  -42.5930 N.am  322  SER322     -0.1952
     87  CA       255.4800  107.3590  -42.7390 C.3   322  SER322      0.1924
     88  C        256.3120  107.9140  -43.8930 C.2   322  SER322      0.2314
     89  O        255.8320  108.7430  -44.6760 O.2   322  SER322     -0.2863
     90  CB       255.9640  108.0250  -41.4540 C.3   322  SER322      0.2116
     91  OG       257.3810  107.9790  -41.3830 O.3   322  SER322     -0.2180
     92  N        258.8730  109.6730  -43.4000 N.3   324  TYR324     -0.1241
     93  CA       259.4520  110.8990  -42.9010 C.3   324  TYR324      0.1605
     94  C        260.9550  110.7450  -42.8470 C.2   324  TYR324      0.2264
     95  O        261.4620  109.6240  -42.8890 O.2   324  TYR324     -0.2867
     96  CB       258.9110  111.1880  -41.5080 C.3   324  TYR324      0.0534
     97  CG       257.4390  111.4570  -41.4930 C.ar  324  TYR324     -0.0201
     98  CD1      256.7540  111.6480  -40.2940 C.ar  324  TYR324     -0.0009
     99  CD2      256.7200  111.5130  -42.6840 C.ar  324  TYR324     -0.0009
    100  CE1      255.3910  111.8850  -40.2810 C.ar  324  TYR324      0.0417
    101  CE2      255.3550  111.7500  -42.6850 C.ar  324  TYR324      0.0417
    102  CZ       254.7050  111.9320  -41.4810 C.ar  324  TYR324      0.1957
    103  OH       253.3640  112.1510  -41.5090 O.3   324  TYR324     -0.2866
    104  N        261.6490  108.9700  -36.1670 N.3   328  LEU328     -0.1245
    105  CA       260.6720  108.7120  -35.1150 C.3   328  LEU328      0.1561
    106  C        261.4220  108.1360  -33.9270 C.2   328  LEU328      0.2260
    107  O        262.4390  107.4660  -34.1060 O.2   328  LEU328     -0.2867
    108  CB       259.6350  107.7120  -35.5920 C.3   328  LEU328      0.0270
    109  CG       258.8530  108.1220  -36.8310 C.3   328  LEU328      0.0019
    110  CD1      257.8010  107.0790  -37.1090 C.3   328  LEU328      0.0001
    111  CD2      258.1980  109.4700  -36.6170 C.3   328  LEU328      0.0001
    112  N        239.0220  103.5710  -36.2230 N.3   350  PHE350     -0.1241
    113  CA       240.4260  103.2070  -36.3160 C.3   350  PHE350      0.1605
    114  C        240.4570  101.8550  -37.0010 C.2   350  PHE350      0.2264
    115  O        241.1980  101.6490  -37.9610 O.2   350  PHE350     -0.2867
    116  CB       241.0850  103.1420  -34.9300 C.3   350  PHE350      0.0534
    117  CG       242.5560  102.8460  -34.9800 C.ar  350  PHE350     -0.0203
    118  CD1      243.2780  103.0380  -36.1550 C.ar  350  PHE350     -0.0042
    119  CD2      243.2090  102.3150  -33.8690 C.ar  350  PHE350     -0.0042
    120  CE1      244.6190  102.6940  -36.2250 C.ar  350  PHE350     -0.0003
    121  CE2      244.5640  101.9660  -33.9310 C.ar  350  PHE350     -0.0003
    122  CZ       245.2680  102.1530  -35.1120 C.ar  350  PHE350     -0.0000
    123  N        239.8420  101.7920  -40.7950 N.3   353  LEU353     -0.1231
    124  CA       240.9800  102.4760  -41.4100 C.3   353  LEU353      0.1693
    125  C        242.2360  101.6380  -41.5690 C.2   353  LEU353      0.2592
    126  O        242.9510  101.7630  -42.5630 O.2   353  LEU353     -0.2718
    127  CB       241.3050  103.7140  -40.5750 C.3   353  LEU353      0.0284
    128  CG       242.5540  104.5660  -40.7890 C.3   353  LEU353      0.0019
    129  CD1      242.4650  105.7020  -39.7990 C.3   353  LEU353      0.0001
    130  CD2      243.8500  103.7870  -40.5680 C.3   353  LEU353      0.0001
    131  N        242.5030  100.7960  -40.5810 N.am  354  TYR354     -0.1976
    132  CA       243.7020   99.9640  -40.5810 C.3   354  TYR354      0.1639
    133  C        243.6490   98.7840  -41.5380 C.2   354  TYR354      0.2290
    134  O        244.5120   97.9090  -41.5020 O.2   354  TYR354     -0.2864
    135  CB       243.9920   99.4730  -39.1560 C.3   354  TYR354      0.0560
    136  CG       245.4570   99.4900  -38.7700 C.ar  354  TYR354     -0.0198
    137  CD1      245.8500   99.8390  -37.4790 C.ar  354  TYR354     -0.0009
    138  CD2      246.4420   99.0910  -39.6720 C.ar  354  TYR354     -0.0009
    139  CE1      247.1810   99.7790  -37.0900 C.ar  354  TYR354      0.0417
    140  CE2      247.7840   99.0260  -39.2940 C.ar  354  TYR354      0.0417
    141  CZ       248.1440   99.3610  -38.0000 C.ar  354  TYR354      0.1957
    142  OH       249.4530   99.1970  -37.5980 O.3   354  TYR354     -0.2866
    143  N        244.7260   97.4100  -44.3220 N.3   356  PHE356     -0.1241
    144  CA       245.7350   97.5160  -45.3550 C.3   356  PHE356      0.1605
    145  C        245.7800   96.2480  -46.2130 C.2   356  PHE356      0.2264
    146  O        246.8330   95.8610  -46.7230 O.2   356  PHE356     -0.2867
    147  CB       247.1010   97.7620  -44.7140 C.3   356  PHE356      0.0534
    148  CG       247.1650   98.9980  -43.8520 C.ar  356  PHE356     -0.0203
    149  CD1      246.1580   99.9610  -43.9010 C.ar  356  PHE356     -0.0042
    150  CD2      248.2590   99.2140  -43.0130 C.ar  356  PHE356     -0.0042
    151  CE1      246.2430  101.1140  -43.1290 C.ar  356  PHE356     -0.0003
    152  CE2      248.3570  100.3600  -42.2410 C.ar  356  PHE356     -0.0003
    153  CZ       247.3520  101.3120  -42.2960 C.ar  356  PHE356     -0.0000
    154  N        250.1420  105.6350  -49.3420 N.3   487  PHE487     -0.1241
    155  CA       248.7160  105.8980  -49.3060 C.3   487  PHE487      0.1605
    156  C        248.4100  107.3930  -49.2160 C.2   487  PHE487      0.2264
    157  O        249.2960  108.2040  -48.9560 O.2   487  PHE487     -0.2867
    158  CB       248.0600  105.1240  -48.1550 C.3   487  PHE487      0.0534
    159  CG       248.7610  105.2700  -46.8350 C.ar  487  PHE487     -0.0203
    160  CD1      248.7790  104.2110  -45.9320 C.ar  487  PHE487     -0.0042
    161  CD2      249.3600  106.4710  -46.4700 C.ar  487  PHE487     -0.0042
    162  CE1      249.3800  104.3430  -44.6850 C.ar  487  PHE487     -0.0003
    163  CE2      249.9640  106.6140  -45.2240 C.ar  487  PHE487     -0.0003
    164  CZ       249.9730  105.5460  -44.3280 C.ar  487  PHE487     -0.0000
    165  N        244.9730  109.1500  -44.7910 N.3   491  MET491     -0.1230
    166  CA       245.4150  107.9410  -44.0950 C.3   491  MET491      0.1702
    167  C        246.2850  108.2590  -42.8640 C.2   491  MET491      0.2592
    168  O        245.9650  107.8380  -41.7550 O.2   491  MET491     -0.2718
    169  CB       246.1690  107.0220  -45.0660 C.3   491  MET491      0.0401
    170  CG       246.0970  105.5400  -44.7130 C.3   491  MET491      0.0596
    171  SD       244.4170  104.9790  -44.3540 S.3   491  MET491     -0.1393
    172  CE       243.6270  105.1230  -45.9490 C.3   491  MET491      0.0692
    173  N        247.3690  109.0100  -43.0420 N.am  492  ILE492     -0.1980
    174  CA       248.2310  109.3530  -41.9130 C.3   492  ILE492      0.1595
    175  C        247.5840  110.3680  -40.9980 C.2   492  ILE492      0.2287
    176  O        247.6660  110.2460  -39.7790 O.2   492  ILE492     -0.2864
    177  CB       249.5580  109.9760  -42.3420 C.3   492  ILE492      0.0276
    178  CG1      249.7080  109.9040  -43.8540 C.3   492  ILE492      0.0022
    179  CG2      250.6890  109.2700  -41.6570 C.3   492  ILE492      0.0022
    180  CD1      250.7720  110.8430  -44.3900 C.3   492  ILE492      0.0001
    181  N        245.1990  108.2710  -39.2440 N.3   495  GLY495     -0.1210
    182  CA       245.8340  107.1010  -38.6570 C.3   495  GLY495      0.1956
    183  C        246.7300  107.3570  -37.4590 C.2   495  GLY495      0.2611
    184  O        246.6050  106.7020  -36.4200 O.2   495  GLY495     -0.2717
    185  N        247.6350  108.3180  -37.6090 N.am  496  ALA496     -0.1979
    186  CA       248.5820  108.7000  -36.5690 C.3   496  ALA496      0.1597
    187  C        247.9530  108.9590  -35.1910 C.2   496  ALA496      0.2287
    188  O        248.3000  108.3150  -34.1950 O.2   496  ALA496     -0.2864
    189  CB       249.3690  109.9320  -37.0360 C.3   496  ALA496      0.0319
    190  N        246.9340  105.6300  -33.6440 N.3   499  SER499     -0.1202
    191  CA       248.1230  104.8130  -33.4360 C.3   499  SER499      0.2020
    192  C        249.0170  105.2380  -32.3010 C.2   499  SER499      0.2618
    193  O        249.4970  104.3960  -31.5450 O.2   499  SER499     -0.2717
    194  CB       248.9760  104.7650  -34.7040 C.3   499  SER499      0.2103
    195  OG       248.2960  104.1090  -35.7490 O.3   499  SER499     -0.2182
    196  N        249.2710  106.5350  -32.1860 N.am  500  LEU500     -0.1979
    197  CA       250.1490  106.9910  -31.1250 C.3   500  LEU500      0.1596
    198  C        249.3720  107.1350  -29.8540 C.2   500  LEU500      0.2287
    199  O        249.8440  106.7330  -28.8030 O.2   500  LEU500     -0.2864
    200  CB       250.8220  108.3130  -31.4910 C.3   500  LEU500      0.0297
    201  CG       251.6670  108.2370  -32.7570 C.3   500  LEU500      0.0022
    202  CD1      251.9540  109.6320  -33.2250 C.3   500  LEU500      0.0001
    203  CD2      252.9300  107.4350  -32.5070 C.3   500  LEU500      0.0001
@<TRIPOS>BOND
     1   154   155    1
     2   155   156    1
     3   155   158    1
     4   156   157    2
     5   158   159    1
     6   159   161   ar
     7   159   160   ar
     8   146   145    2
     9   161   163   ar
    10   145   144    1
    11   172   171    1
    12   160   162   ar
    13   144   147    1
    14   144   143    1
    15   163   164   ar
    16   169   170    1
    17   169   166    1
    18   165   166    1
    19   147   148    1
    20   170   171    1
    21    81    80    2
    22   162   164   ar
    23    89    88    2
    24   180   178    1
    25     3     4    2
    26     3     2    1
    27   166   167    1
    28   149   148   ar
    29   149   151   ar
    30    88    87    1
    31   178   177    1
    32   148   150   ar
    33     1     2    1
    34    84    83    1
    35    80    79    1
    36    80    86   am
    37    92    93    1
    38     2     5    1
    39    79    78    1
    40    79    82    1
    41   151   153   ar
    42   173   167   am
    43   173   174    1
    44   150   152   ar
    45    93    94    1
    46    93    96    1
    47    95    94    2
    48   167   168    2
    49    87    86    1
    50    87    90    1
    51   101    99   ar
    52   101   102   ar
    53    99    97   ar
    54    83    82    1
    55    83    85    1
    56     5     6    1
    57   126   125    2
    58   177   174    1
    59   177   179    1
    60   153   152   ar
    61   174   175    1
    62   125   124    1
    63   125   131   am
    64   133   134    2
    65   133   132    1
    66   103   102    1
    67    96    97    1
    68    97    98   ar
    69   102   100   ar
    70    90    91    1
    71   124   123    1
    72   124   127    1
    73     6     7    1
    74     6     8    1
    75   175   176    2
    76   128   127    1
    77   128   130    1
    78   128   129    1
    79   132   131    1
    80   132   135    1
    81    98   100   ar
    82    76    75    2
    83    64    63    2
    84   138   140   ar
    85   138   136   ar
    86    72    71    1
    87   140   141   ar
    88   181   182    1
    89   135   136    1
    90    69    71   ar
    91    69    67   ar
    92    75    74    1
    93    34    32    1
    94    71    70   ar
    95   136   137   ar
    96    63    62    1
    97    63    73   am
    98   182   183    1
    99    67    66   ar
   100    33    32    1
   101    62    61    1
   102    62    65    1
   103    74    73    1
   104    74    77    1
   105    70    68   ar
   106   141   142    1
   107   141   139   ar
   108   115   114    2
   109    32    31    2
   110    66    68   ar
   111    66    65    1
   112   185   183   am
   113   185   186    1
   114   137   139   ar
   115   183   184    2
   116   110   109    1
   117   189   186    1
   118   114   113    1
   119   109   111    1
   120   109   108    1
   121    31    30    1
   122   186   187    1
   123   113   112    1
   124   113   116    1
   125   120   118   ar
   126   120   122   ar
   127   104   105    1
   128   118   117   ar
   129   195   194    1
   130   108   105    1
   131    30    29    1
   132    56    55    2
   133    35    36    1
   134    49    48    2
   135    23    21    1
   136   187   188    2
   137   105   106    1
   138   122   121   ar
   139   117   116    1
   140   117   119   ar
   141    39    36    1
   142    39    40    1
   143   194   191    1
   144    29    28    1
   145    42    40   ar
   146    42    44   ar
   147    36    37    1
   148    55    54    1
   149    37    38    2
   150    48    47    1
   151    48    53   am
   152   107   106    2
   153    40    41   ar
   154    21    22    1
   155    21    18    1
   156    51    50    1
   157    47    46    1
   158    47    50    1
   159   121   119   ar
   160    44    45   ar
   161   190   191    1
   162    54    53    1
   163    54    57    1
   164   191   192    1
   165   202   201    1
   166    28    25    1
   167    50    52    1
   168    18    17    1
   169    18    19    1
   170    41    43   ar
   171    25    24    1
   172    25    26    1
   173   201   203    1
   174   201   200    1
   175    20    19    2
   176    59    57    1
   177    45    43   ar
   178    15    16    1
   179    15    14    1
   180   192   196   am
   181   192   193    2
   182    57    58    1
   183   196   197    1
   184     9    10    1
   185    27    26    2
   186    10    13    1
   187    10    11    1
   188    58    60    1
   189   200   197    1
   190    13    14    1
   191   197   198    1
   192    12    11    2
   193   198   199    2
