@<TRIPOS>MOLECULE
tmp/1u6qA00.pdb
 184 184 0 0 0
SMALL
GASTEIGER

@<TRIPOS>ATOM
      1  N         22.9530    9.6580   24.8620 N.3    46  HIS46      -0.1226
      2  CA        24.0980   10.0010   25.7200 C.3    46  HIS46       0.1752
      3  C         24.2750    9.1070   26.9540 C.2    46  HIS46       0.2596
      4  O         25.3500    9.0800   27.5560 O.2    46  HIS46      -0.2718
      5  CB        24.0880   11.4930   26.1370 C.3    46  HIS46       0.0759
      6  CG        23.2840   11.8070   27.3650 C.ar   46  HIS46       0.0818
      7  ND1       21.9750   12.2340   27.3200 N.ar   46  HIS46      -0.2268
      8  CD2       23.6340   11.8120   28.6750 C.ar   46  HIS46       0.1154
      9  CE1       21.5520   12.4940   28.5470 C.ar   46  HIS46       0.1986
     10  NE2       22.5410   12.2450   29.3870 N.ar   46  HIS46      -0.2212
     11  N         23.2310    8.3640   27.3030 N.am   47  CYS47      -0.1970
     12  CA        23.2510    7.4440   28.4420 C.3    47  CYS47       0.1712
     13  C         24.0100    6.1450   28.1210 C.2    47  CYS47       0.2296
     14  O         24.3760    5.4050   29.0330 O.2    47  CYS47      -0.2864
     15  CB        21.8160    7.0500   28.8270 C.3    47  CYS47       0.0983
     16  SG        20.7520    8.3160   29.5880 S.3    47  CYS47      -0.0798
     17  N         26.2190    5.8290   24.7880 N.3    49  ILE49      -0.1231
     18  CA        27.2770    6.0380   23.7980 C.3    49  ILE49       0.1692
     19  C         28.7040    5.6140   24.2090 C.2    49  ILE49       0.2592
     20  O         29.4590    5.1220   23.3680 O.2    49  ILE49      -0.2718
     21  CB        27.2680    7.5250   23.3210 C.3    49  ILE49       0.0266
     22  CG1       28.1240    7.7190   22.0670 C.3    49  ILE49       0.0019
     23  CG2       27.7560    8.4350   24.4310 C.3    49  ILE49       0.0020
     24  CD1       27.5390    7.0980   20.8250 C.3    49  ILE49       0.0001
     25  N         29.0700    5.7830   25.4830 N.am   50  ASP50      -0.1974
     26  CA        30.4070    5.4060   25.9580 C.3    50  ASP50       0.1709
     27  C         30.5590    3.9440   26.4150 C.2    50  ASP50       0.2293
     28  O         31.6560    3.5130   26.7660 O.2    50  ASP50      -0.2864
     29  CB        30.8650    6.3290   27.0980 C.3    50  ASP50       0.1436
     30  CG        30.9240    7.7870   26.6880 C.2    50  ASP50       0.3671
     31  OD1       31.2580    8.0660   25.5180 O.co2  50  ASP50      -0.2456
     32  OD2       30.6610    8.6650   27.5340 O.co2  50  ASP50      -0.2456
     33  N         24.0630   11.3250   16.2070 N.3    87  TYR87      -0.1241
     34  CA        24.2260   11.9220   17.5360 C.3    87  TYR87       0.1605
     35  C         25.5840   12.6090   17.7260 C.2    87  TYR87       0.2264
     36  O         26.6030   12.1270   17.2370 O.2    87  TYR87      -0.2867
     37  CB        24.0310   10.8510   18.6260 C.3    87  TYR87       0.0534
     38  CG        24.4860   11.2710   20.0150 C.ar   87  TYR87      -0.0201
     39  CD1       25.8250   11.1670   20.3950 C.ar   87  TYR87      -0.0009
     40  CD2       23.5930   11.8450   20.9170 C.ar   87  TYR87      -0.0009
     41  CE1       26.2640   11.6300   21.6420 C.ar   87  TYR87       0.0417
     42  CE2       24.0150   12.3100   22.1630 C.ar   87  TYR87       0.0417
     43  CZ        25.3520   12.2040   22.5180 C.ar   87  TYR87       0.1957
     44  OH        25.7750   12.6950   23.7340 O.3    87  TYR87      -0.2866
     45  N         23.1560   18.4570   23.3840 N.3    94  HIS94      -0.1241
     46  CA        23.2830   17.1110   22.8390 C.3    94  HIS94       0.1621
     47  C         22.3550   17.0410   21.6220 C.2    94  HIS94       0.2264
     48  O         21.1990   17.4570   21.6860 O.2    94  HIS94      -0.2867
     49  CB        22.8760   16.0700   23.8900 C.3    94  HIS94       0.0745
     50  CG        23.7910   16.0190   25.0770 C.ar   94  HIS94       0.0817
     51  ND1       24.4910   14.8850   25.4270 N.ar   94  HIS94      -0.2268
     52  CD2       24.1390   16.9670   25.9820 C.ar   94  HIS94       0.1154
     53  CE1       25.2320   15.1340   26.4920 C.ar   94  HIS94       0.1986
     54  NE2       25.0360   16.3910   26.8480 N.ar   94  HIS94      -0.2212
     55  N         13.0270   20.8430   39.3580 N.3   192  ASP192     -0.1225
     56  CA        13.5810   20.5420   38.0340 C.3   192  ASP192      0.1805
     57  C         14.1660   19.1130   37.9600 C.2   192  ASP192      0.2598
     58  O         14.2490   18.4240   38.9740 O.2   192  ASP192     -0.2718
     59  CB        14.6660   21.6130   37.7670 C.3   192  ASP192      0.1424
     60  CG        15.3500   21.4770   36.4220 C.2   192  ASP192      0.3668
     61  OD1       14.7150   21.0580   35.4330 O.co2 192  ASP192     -0.2456
     62  OD2       16.5380   21.8440   36.3450 O.co2 192  ASP192     -0.2456
     63  N         14.5400   18.6520   36.7660 N.am  193  SER193     -0.1938
     64  CA        15.1590   17.3390   36.6460 C.3   193  SER193      0.2055
     65  C         16.6580   17.5820   36.8650 C.2   193  SER193      0.2643
     66  O         17.1070   18.7280   36.8560 O.2   193  SER193     -0.2714
     67  CB        14.8850   16.7140   35.2710 C.3   193  SER193      0.2130
     68  OG        15.2830   17.5510   34.1950 O.3   193  SER193     -0.2179
     69  N         17.4310   16.5200   37.0730 N.am  194  CYS194     -0.1953
     70  CA        18.8590   16.6770   37.3380 C.3   194  CYS194      0.1843
     71  C         19.5950   15.3980   36.9280 C.2   194  CYS194      0.2625
     72  O         18.9710   14.4330   36.4790 O.2   194  CYS194     -0.2714
     73  CB        19.0520   16.9710   38.8420 C.3   194  CYS194      0.0997
     74  SG        20.6740   17.6400   39.3360 S.3   194  CYS194     -0.0797
     75  N         20.9210   15.4030   37.0580 N.am  195  GLN195     -0.1963
     76  CA        21.7300   14.2400   36.7120 C.3   195  GLN195      0.1733
     77  C         21.1050   12.9950   37.3370 C.2   195  GLN195      0.2616
     78  O         20.7380   13.0000   38.5090 O.2   195  GLN195     -0.2715
     79  CB        23.1630   14.4460   37.2140 C.3   195  GLN195      0.0408
     80  CG        24.0440   13.2170   37.1340 C.3   195  GLN195      0.0908
     81  CD        25.4950   13.5260   37.4120 C.2   195  GLN195      0.2608
     82  OE1       25.8150   14.2950   38.3130 O.2   195  GLN195     -0.2717
     83  NE2       26.3860   12.9030   36.6540 N.am  195  GLN195     -0.0878
     84  N         20.9710   11.9360   36.5460 N.am  196  GLY196     -0.1955
     85  CA        20.3510   10.7150   37.0370 C.3   196  GLY196      0.1869
     86  C         18.9700   10.5360   36.4240 C.2   196  GLY196      0.2309
     87  O         18.4790    9.4130   36.2810 O.2   196  GLY196     -0.2863
     88  N         18.2270   11.6810   33.2870 N.3   198  SER198     -0.1217
     89  CA        18.3550   11.6260   31.8270 C.3   198  SER198      0.1889
     90  C         17.7030   10.4110   31.1860 C.2   198  SER198      0.2288
     91  O         17.7330    9.3140   31.7340 O.2   198  SER198     -0.2866
     92  CB        19.8340   11.6720   31.3990 C.3   198  SER198      0.2089
     93  OG        20.4350   12.9210   31.7100 O.3   198  SER198     -0.2183
     94  N         14.1920   13.5530   28.6720 N.3   216  VAL216     -0.1231
     95  CA        15.1520   14.3410   29.4610 C.3   216  VAL216      0.1692
     96  C         16.5130   14.2290   28.7760 C.2   216  VAL216      0.2593
     97  O         17.0270   13.1240   28.6100 O.2   216  VAL216     -0.2718
     98  CB        15.2630   13.8140   30.9400 C.3   216  VAL216      0.0266
     99  CG1       16.3110   14.6270   31.7070 C.3   216  VAL216      0.0020
    100  CG2       13.9310   13.9340   31.6550 C.3   216  VAL216      0.0020
    101  N         17.0980   15.3690   28.3950 N.am  217  SER217     -0.1938
    102  CA        18.3660   15.3780   27.6750 C.3   217  SER217      0.2055
    103  C         19.5540   16.1270   28.2890 C.2   217  SER217      0.2643
    104  O         20.5760   15.5100   28.5650 O.2   217  SER217     -0.2714
    105  CB        18.1290   15.9000   26.2530 C.3   217  SER217      0.2130
    106  OG        19.3290   15.8860   25.5100 O.3   217  SER217     -0.2179
    107  N         19.4490   17.4470   28.4510 N.am  218  TRP218     -0.1959
    108  CA        20.5360   18.2480   29.0340 C.3   218  TRP218      0.1771
    109  C         20.0740   19.5270   29.7140 C.2   218  TRP218      0.2620
    110  O         18.9060   19.8870   29.6400 O.2   218  TRP218     -0.2715
    111  CB        21.5970   18.6310   27.9820 C.3   218  TRP218      0.0590
    112  CG        21.0930   19.3750   26.7530 C.ar  218  TRP218      0.0006
    113  CD1       20.5120   18.8260   25.6400 C.ar  218  TRP218      0.0946
    114  CD2       21.1810   20.7870   26.4980 C.ar  218  TRP218      0.0152
    115  NE1       20.2440   19.8010   24.7140 N.ar  218  TRP218     -0.2442
    116  CE2       20.6420   21.0140   25.2100 C.ar  218  TRP218      0.0810
    117  CE3       21.6640   21.8810   27.2310 C.ar  218  TRP218      0.0012
    118  CZ2       20.5730   22.2900   24.6360 C.ar  218  TRP218      0.0191
    119  CZ3       21.5930   23.1550   26.6580 C.ar  218  TRP218      0.0001
    120  CH2       21.0510   23.3430   25.3710 C.ar  218  TRP218      0.0015
    121  N         21.0090   20.2080   30.3720 N.am  219  GLY219     -0.1940
    122  CA        20.7080   21.4550   31.0480 C.3   219  GLY219      0.2014
    123  C         21.8950   21.9810   31.8380 C.2   219  GLY219      0.2639
    124  O         22.7490   21.2060   32.2520 O.2   219  GLY219     -0.2714
    125  N         21.9660   23.2960   32.0320 N.am  220  ARG220     -0.1963
    126  CA        23.0610   23.9020   32.7960 C.3   220  ARG220      0.1729
    127  C         22.7160   23.8990   34.2830 C.2   220  ARG220      0.2617
    128  O         21.9010   24.7000   34.7560 O.2   220  ARG220     -0.2715
    129  CB        23.3160   25.3390   32.3320 C.3   220  ARG220      0.0348
    130  CG        24.4140   26.1300   33.0950 C.3   220  ARG220      0.0492
    131  CD        25.8330   25.5770   32.9220 C.3   220  ARG220      0.2205
    132  NE        26.0910   24.3640   33.7020 N.pl3 220  ARG220     -0.0865
    133  CZ        26.2670   24.3350   35.0250 C.cat 220  ARG220      0.5346
    134  NH1       26.2200   25.4500   35.7450 N.pl3 220  ARG220      0.1354
    135  NH2       26.4740   23.1750   35.6350 N.pl3 220  ARG220      0.1354
    136  N         23.3400   22.9890   35.0160 N.am  221  GLY221     -0.1940
    137  CA        23.0700   22.8860   36.4370 C.3   221  GLY221      0.2014
    138  C         21.6960   22.2770   36.5970 C.2   221  GLY221      0.2639
    139  O         21.1510   21.7430   35.6350 O.2   221  GLY221     -0.2714
    140  N         21.1410   22.3620   37.8030 N.am  222  CYS222     -0.1967
    141  CA        19.8150   21.8290   38.0880 C.3   222  CYS222      0.1712
    142  C         19.0400   22.8540   38.9060 C.2   222  CYS222      0.2296
    143  O         19.4520   23.2160   40.0070 O.2   222  CYS222     -0.2864
    144  CB        19.9210   20.5170   38.8730 C.3   222  CYS222      0.0983
    145  SG        20.9160   19.2090   38.0730 S.3   222  CYS222     -0.0798
    146  N         17.8990   28.8880   33.3300 N.3   227  LYS227     -0.1231
    147  CA        18.5290   27.7190   32.7170 C.3   227  LYS227      0.1678
    148  C         17.5480   26.5410   32.7890 C.2   227  LYS227      0.2434
    149  O         17.6210   25.7130   33.7020 O.2   227  LYS227     -0.2733
    150  CB        19.8170   27.3760   33.4760 C.3   227  LYS227      0.0284
    151  CG        20.7940   28.5380   33.5930 C.3   227  LYS227      0.0035
    152  CD        21.2510   29.0140   32.2280 C.3   227  LYS227      0.0206
    153  CE        22.1220   30.2520   32.3480 C.3   227  LYS227      0.1093
    154  NZ        22.6620   30.6630   31.0200 N.3   227  LYS227     -0.1314
    155  N         16.6080   26.4620   31.8340 N.am  228  PRO228     -0.2718
    156  CA        15.6060   25.3850   31.7980 C.3   228  PRO228      0.1535
    157  C         16.1750   24.0080   31.4520 C.2   228  PRO228      0.2599
    158  O         17.3020   23.8880   30.9770 O.2   228  PRO228     -0.2715
    159  CB        14.6330   25.8630   30.7090 C.3   228  PRO228      0.0310
    160  CG        14.8840   27.3780   30.6340 C.3   228  PRO228      0.0237
    161  CD        16.3860   27.3830   30.7100 C.3   228  PRO228      0.0939
    162  N         15.3880   22.9690   31.7090 N.am  229  GLY229     -0.1941
    163  CA        15.8050   21.6340   31.3400 C.3   229  GLY229      0.2014
    164  C         15.5410   21.5780   29.8390 C.2   229  GLY229      0.2639
    165  O         14.5950   22.2100   29.3570 O.2   229  GLY229     -0.2714
    166  N         16.3710   20.8510   29.0950 N.am  230  VAL230     -0.1963
    167  CA        16.2090   20.7360   27.6450 C.3   230  VAL230      0.1727
    168  C         15.8510   19.2940   27.3210 C.2   230  VAL230      0.2616
    169  O         16.4390   18.3610   27.8750 O.2   230  VAL230     -0.2715
    170  CB        17.5010   21.1460   26.9070 C.3   230  VAL230      0.0290
    171  CG1       17.2830   21.1060   25.4040 C.3   230  VAL230      0.0023
    172  CG2       17.9220   22.5430   27.3470 C.3   230  VAL230      0.0023
    173  N         14.8980   19.1160   26.4090 N.am  231  TYR231     -0.1974
    174  CA        14.3790   17.7910   26.0540 C.3   231  TYR231      0.1639
    175  C         14.3310   17.5230   24.5500 C.2   231  TYR231      0.2290
    176  O         14.1010   18.4310   23.7530 O.2   231  TYR231     -0.2864
    177  CB        12.9490   17.6650   26.6040 C.3   231  TYR231      0.0560
    178  CG        12.8300   17.8590   28.1050 C.ar  231  TYR231     -0.0198
    179  CD1       12.7970   16.7570   28.9730 C.ar  231  TYR231     -0.0009
    180  CD2       12.8090   19.1420   28.6670 C.ar  231  TYR231     -0.0009
    181  CE1       12.7510   16.9240   30.3540 C.ar  231  TYR231      0.0417
    182  CE2       12.7660   19.3230   30.0630 C.ar  231  TYR231      0.0417
    183  CZ        12.7380   18.2060   30.8960 C.ar  231  TYR231      0.1957
    184  OH        12.7060   18.3530   32.2680 O.3   231  TYR231     -0.2866
@<TRIPOS>BOND
     1    33    34    1
     2    36    35    2
     3    34    35    1
     4    34    37    1
     5    37    38    1
     6    38    39   ar
     7    38    40   ar
     8    39    41   ar
     9    24    22    1
    10    40    42   ar
    11    47    48    2
    12    47    46    1
    13    41    43   ar
    14    22    21    1
    15    42    43   ar
    16    43    44    1
    17    46    45    1
    18    46    49    1
    19    21    18    1
    20    21    23    1
    21    20    19    2
    22   176   175    2
    23    18    19    1
    24    18    17    1
    25    49    50    1
    26    19    25   am
    27   175   174    1
    28   118   116   ar
    29   118   120   ar
    30   115   116   ar
    31   115   113   ar
    32     1     2    1
    33    50    51   ar
    34    50    52   ar
    35   116   114   ar
    36   120   119   ar
    37   171   170    1
    38    51    53   ar
    39    25    26    1
    40   106   105    1
    41    31    30   ar
    42   113   112   ar
    43     2     5    1
    44     2     3    1
    45    26    27    1
    46    26    29    1
    47    52    54   ar
    48   174   173    1
    49   174   177    1
    50     5     6    1
    51   105   102    1
    52   173   168   am
    53    27    28    2
    54    53    54   ar
    55   114   112   ar
    56   114   117   ar
    57   177   178    1
    58   119   117   ar
    59    30    29    1
    60    30    32   ar
    61   112   111    1
    62   170   172    1
    63   170   167    1
    64     3    11   am
    65     3     4    2
    66    11    12    1
    67     7     6   ar
    68     7     9   ar
    69   168   167    1
    70   168   169    2
    71     6     8   ar
    72   167   166    1
    73   102   103    1
    74   102   101    1
    75   111   108    1
    76   178   180   ar
    77   178   179   ar
    78    13    12    1
    79    13    14    2
    80   103   107   am
    81   103   104    2
    82   101    96   am
    83    12    15    1
    84   107   108    1
    85     9    10   ar
    86    97    96    2
    87   180   182   ar
    88    94    95    1
    89     8    10   ar
    90    96    95    1
    91    15    16    1
    92   179   181   ar
    93   108   109    1
    94   166   164   am
    95   165   164    2
    96    95    98    1
    97   110   109    2
    98   109   121   am
    99   164   163    1
   100   182   183   ar
   101   181   183   ar
   102   121   122    1
   103   160   159    1
   104   160   161    1
   105   159   156    1
   106   161   155    1
   107   183   184    1
   108    98   100    1
   109    98    99    1
   110   158   157    2
   111   154   153    1
   112   122   123    1
   113    90    91    2
   114    90    89    1
   115   163   162    1
   116    92    93    1
   117    92    89    1
   118   157   162   am
   119   157   156    1
   120   156   155    1
   121    89    88    1
   122   155   148   am
   123   123   125   am
   124   123   124    2
   125   125   126    1
   126   152   153    1
   127   152   151    1
   128   129   126    1
   129   129   130    1
   130   147   148    1
   131   147   146    1
   132   147   150    1
   133   148   149    2
   134   126   127    1
   135   131   130    1
   136   131   132    1
   137   150   151    1
   138   132   133    2
   139    68    67    1
   140   127   128    2
   141   127   136   am
   142   136   137    1
   143   133   135    1
   144   133   134    1
   145    67    64    1
   146    61    60   ar
   147   139   138    2
   148    87    86    2
   149    62    60   ar
   150    60    59    1
   151    86    85    1
   152   137   138    1
   153    72    71    2
   154    84    85    1
   155    84    77   am
   156   138   140   am
   157    64    63    1
   158    64    65    1
   159    83    81   am
   160    76    75    1
   161    76    79    1
   162    76    77    1
   163    63    57   am
   164    66    65    2
   165    65    69   am
   166    71    75   am
   167    71    70    1
   168    69    70    1
   169    80    79    1
   170    80    81    1
   171    77    78    2
   172    70    73    1
   173    81    82    2
   174    59    56    1
   175   140   141    1
   176    57    56    1
   177    57    58    2
   178    56    55    1
   179   145   144    1
   180   145    74    1
   181   141   144    1
   182   141   142    1
   183    73    74    1
   184   142   143    2
