@<TRIPOS>MOLECULE
tmp/1u6rA00.pdb
 150 143 0 0 0
SMALL
GASTEIGER

@<TRIPOS>ATOM
      1  N         28.9830   63.3790   69.4260 N.3   127  SER127     -0.1202
      2  CA        29.6330   62.0830   69.6020 C.3   127  SER127      0.2020
      3  C         28.6350   60.9480   69.4290 C.2   127  SER127      0.2619
      4  O         27.4300   61.1370   69.6000 O.2   127  SER127     -0.2717
      5  CB        30.3080   61.9930   70.9700 C.3   127  SER127      0.2103
      6  OG        29.4030   62.3150   72.0070 O.3   127  SER127     -0.2182
      7  N         29.1540   59.7810   69.0640 N.am  128  SER128     -0.1937
      8  CA        28.3450   58.5910   68.8210 C.3   128  SER128      0.2055
      9  C         28.9170   57.4500   69.6480 C.2   128  SER128      0.2642
     10  O         30.1260   57.3460   69.7840 O.2   128  SER128     -0.2714
     11  CB        28.3920   58.2200   67.3390 C.3   128  SER128      0.2130
     12  OG        27.8350   59.2450   66.5320 O.3   128  SER128     -0.2179
     13  N         28.0420   56.5820   70.1600 N.am  129  ARG129     -0.1977
     14  CA        28.4360   55.5390   71.1100 C.3   129  ARG129      0.1597
     15  C         27.5190   54.3210   71.0160 C.2   129  ARG129      0.2287
     16  O         26.3090   54.4690   70.8280 O.2   129  ARG129     -0.2864
     17  CB        28.3590   56.1040   72.5240 C.3   129  ARG129      0.0334
     18  CG        28.9300   55.2470   73.6360 C.3   129  ARG129      0.0492
     19  CD        28.8590   55.9720   74.9840 C.3   129  ARG129      0.2205
     20  NE        29.2880   55.1970   76.1530 N.pl3 129  ARG129     -0.0865
     21  CZ        28.4810   54.4870   76.9490 C.cat 129  ARG129      0.5346
     22  NH1       27.1780   54.4130   76.7100 N.pl3 129  ARG129      0.1354
     23  NH2       28.9860   53.8410   77.9950 N.pl3 129  ARG129      0.1354
     24  N         27.0750   50.6950   73.3450 N.3   131  ARG131     -0.1245
     25  CA        27.4880   49.9170   74.5150 C.3   131  ARG131      0.1563
     26  C         26.6560   48.6510   74.6190 C.2   131  ARG131      0.2260
     27  O         25.4790   48.6480   74.2590 O.2   131  ARG131     -0.2867
     28  CB        27.3060   50.7460   75.7950 C.3   131  ARG131      0.0307
     29  CG        27.4010   49.9510   77.0980 C.3   131  ARG131      0.0489
     30  CD        26.0780   49.3350   77.5420 C.3   131  ARG131      0.2205
     31  NE        25.1860   50.3260   78.1380 N.pl3 131  ARG131     -0.0865
     32  CZ        23.8960   50.1220   78.4170 C.cat 131  ARG131      0.5346
     33  NH1       23.3020   48.9720   78.1270 N.pl3 131  ARG131      0.1354
     34  NH2       23.1880   51.0820   78.9990 N.pl3 131  ARG131      0.1354
     35  N         37.0790   59.5770   79.9250 N.3   190  HIS190     -0.1241
     36  CA        35.7490   59.0800   80.2950 C.3   190  HIS190      0.1621
     37  C         35.6710   57.5500   80.2220 C.2   190  HIS190      0.2264
     38  O         34.6400   56.9930   79.8420 O.2   190  HIS190     -0.2867
     39  CB        34.6580   59.7320   79.4290 C.3   190  HIS190      0.0745
     40  CG        34.6800   61.2290   79.4600 C.ar  190  HIS190      0.0817
     41  ND1       34.3660   61.9550   80.5890 N.ar  190  HIS190     -0.2268
     42  CD2       34.9880   62.1360   78.5020 C.ar  190  HIS190      0.1154
     43  CE1       34.4760   63.2450   80.3260 C.ar  190  HIS190      0.1986
     44  NE2       34.8500   63.3820   79.0660 N.ar  190  HIS190     -0.2212
     45  N         35.1700   47.0450   79.9990 N.3   227  TRP227     -0.1241
     46  CA        35.2240   47.0060   81.4570 C.3   227  TRP227      0.1605
     47  C         35.0550   45.5600   81.8770 C.2   227  TRP227      0.2264
     48  O         34.1240   44.8910   81.4240 O.2   227  TRP227     -0.2867
     49  CB        34.0950   47.8260   82.0670 C.3   227  TRP227      0.0550
     50  CG        34.2350   49.2890   81.9060 C.ar  227  TRP227      0.0003
     51  CD1       35.3040   49.9750   81.3980 C.ar  227  TRP227      0.0946
     52  CD2       33.2770   50.2720   82.2910 C.ar  227  TRP227      0.0152
     53  NE1       35.0590   51.3280   81.4340 N.ar  227  TRP227     -0.2442
     54  CE2       33.8250   51.5410   81.9820 C.ar  227  TRP227      0.0810
     55  CE3       32.0130   50.2150   82.8900 C.ar  227  TRP227      0.0012
     56  CZ2       33.1470   52.7310   82.2350 C.ar  227  TRP227      0.0191
     57  CZ3       31.3350   51.3980   83.1320 C.ar  227  TRP227      0.0001
     58  CH2       31.9060   52.6420   82.8040 C.ar  227  TRP227      0.0015
     59  N         31.5650   44.7650   79.8980 N.3   235  ARG235     -0.1245
     60  CA        30.8490   45.8550   79.2530 C.3   235  ARG235      0.1563
     61  C         31.7240   46.2910   78.0930 C.2   235  ARG235      0.2260
     62  O         32.9110   46.5250   78.2820 O.2   235  ARG235     -0.2867
     63  CB        30.6420   47.0360   80.2010 C.3   235  ARG235      0.0307
     64  CG        29.5770   48.0330   79.7580 C.3   235  ARG235      0.0489
     65  CD        29.4010   49.1750   80.7590 C.3   235  ARG235      0.2205
     66  NE        28.0930   49.8270   80.7430 N.pl3 235  ARG235     -0.0865
     67  CZ        26.9560   49.2760   81.1770 C.cat 235  ARG235      0.5346
     68  NH1       26.9220   48.0230   81.6120 N.pl3 235  ARG235      0.1354
     69  NH2       25.8320   49.9760   81.1490 N.pl3 235  ARG235      0.1354
     70  N         33.1150   54.0170   70.7420 N.3   239  MET239     -0.1245
     71  CA        32.7550   55.4290   70.7250 C.3   239  MET239      0.1570
     72  C         33.7150   56.2790   69.9070 C.2   239  MET239      0.2261
     73  O         34.8660   55.9230   69.7140 O.2   239  MET239     -0.2867
     74  CB        32.6530   55.9870   72.1470 C.3   239  MET239      0.0387
     75  CG        33.9720   56.3870   72.8240 C.3   239  MET239      0.0595
     76  SD        35.2320   55.1120   72.8920 S.3   239  MET239     -0.1393
     77  CE        34.5380   54.0100   74.1220 C.3   239  MET239      0.0692
     78  N         22.8430   49.8780   74.2500 N.3   291  ARG291     -0.1245
     79  CA        22.4490   51.2740   74.2890 C.3   291  ARG291      0.1563
     80  C         23.3220   51.9830   73.2710 C.2   291  ARG291      0.2260
     81  O         24.5190   52.1940   73.4990 O.2   291  ARG291     -0.2867
     82  CB        22.6220   51.8920   75.6710 C.3   291  ARG291      0.0307
     83  CG        21.8870   53.2160   75.8120 C.3   291  ARG291      0.0489
     84  CD        21.7990   53.7480   77.2060 C.3   291  ARG291      0.2205
     85  NE        23.0110   54.4520   77.6080 N.pl3 291  ARG291     -0.0865
     86  CZ        23.2800   55.7190   77.3020 C.cat 291  ARG291      0.5346
     87  NH1       22.4270   56.4320   76.5880 N.pl3 291  ARG291      0.1354
     88  NH2       24.4170   56.2720   77.7110 N.pl3 291  ARG291      0.1354
     89  N         23.7700   55.3980   71.1620 N.3   293  GLY293     -0.1210
     90  CA        23.3280   56.7670   71.3360 C.3   293  GLY293      0.1956
     91  C         24.3000   57.8190   70.8700 C.2   293  GLY293      0.2612
     92  O         25.4240   57.5190   70.4620 O.2   293  GLY293     -0.2717
     93  N         23.8350   59.0590   70.9410 N.am  294  VAL294     -0.1965
     94  CA        24.6160   60.2130   70.5300 C.3   294  VAL294      0.1727
     95  C         24.5220   61.2910   71.5920 C.2   294  VAL294      0.2616
     96  O         23.5510   61.3390   72.3470 O.2   294  VAL294     -0.2715
     97  CB        24.1170   60.7900   69.1760 C.3   294  VAL294      0.0290
     98  CG1       24.3000   59.7730   68.0650 C.3   294  VAL294      0.0023
     99  CG2       22.6500   61.2400   69.2550 C.3   294  VAL294      0.0023
    100  N         25.5430   62.1400   71.6620 N.am  295  HIS295     -0.1973
    101  CA        25.3910   63.4420   72.2970 C.3   295  HIS295      0.1656
    102  C         25.0100   64.3940   71.1780 C.2   295  HIS295      0.2291
    103  O         25.7420   64.5230   70.1970 O.2   295  HIS295     -0.2864
    104  CB        26.6700   63.8980   73.0040 C.3   295  HIS295      0.0771
    105  CG        26.8820   63.2630   74.3420 C.ar  295  HIS295      0.0820
    106  ND1       28.0700   63.3660   75.0340 N.ar  295  HIS295     -0.2267
    107  CD2       26.0650   62.5030   75.1100 C.ar  295  HIS295      0.1154
    108  CE1       27.9730   62.7030   76.1730 C.ar  295  HIS295      0.1986
    109  NE2       26.7670   62.1670   76.2410 N.ar  295  HIS295     -0.2212
    110  N         18.9390   61.3380   78.3830 N.3   319  ARG319     -0.1245
    111  CA        19.6430   61.4940   79.6530 C.3   319  ARG319      0.1563
    112  C         20.4010   62.8190   79.5960 C.2   319  ARG319      0.2260
    113  O         20.3260   63.5350   78.5950 O.2   319  ARG319     -0.2867
    114  CB        20.6370   60.3480   79.8760 C.3   319  ARG319      0.0307
    115  CG        20.0920   58.9580   79.5750 C.3   319  ARG319      0.0489
    116  CD        21.1180   57.9940   79.0280 C.3   319  ARG319      0.2205
    117  NE        21.5830   57.0550   80.0400 N.pl3 319  ARG319     -0.0865
    118  CZ        21.0450   55.8610   80.2700 C.cat 319  ARG319      0.5346
    119  NH1       19.9880   55.4310   79.5810 N.pl3 319  ARG319      0.1354
    120  NH2       21.5690   55.0910   81.2140 N.pl3 319  ARG319      0.1354
    121  N         24.1520   65.1080   79.9140 N.3   321  THR321     -0.1203
    122  CA        25.3730   65.0860   79.1130 C.3   321  THR321      0.1994
    123  C         26.4330   64.2050   79.7680 C.2   321  THR321      0.2618
    124  O         27.2640   63.6210   79.0760 O.2   321  THR321     -0.2717
    125  CB        25.9170   66.5170   78.9100 C.3   321  THR321      0.1784
    126  OG1       24.9260   67.3270   78.2670 O.3   321  THR321     -0.2211
    127  CG2       27.0870   66.5280   77.9260 C.3   321  THR321      0.0376
    128  N         26.3990   64.1160   81.0970 N.am  322  GLY322     -0.1942
    129  CA        27.3850   63.3480   81.8580 C.3   322  GLY322      0.2014
    130  C         26.9020   61.9920   82.3470 C.2   322  GLY322      0.2639
    131  O         27.5880   61.3370   83.1360 O.2   322  GLY322     -0.2714
    132  N         25.7270   61.5640   81.8920 N.am  323  GLY323     -0.1939
    133  CA        25.2010   60.2520   82.2580 C.3   323  GLY323      0.2014
    134  C         23.7280   60.2520   82.6150 C.2   323  GLY323      0.2638
    135  O         22.9870   61.1770   82.2730 O.2   323  GLY323     -0.2714
    136  N         23.3160   59.1990   83.3160 N.am  324  VAL324     -0.1977
    137  CA        21.9020   58.9420   83.5960 C.3   324  VAL324      0.1596
    138  C         21.2300   60.0230   84.4550 C.2   324  VAL324      0.2287
    139  O         20.0920   60.4170   84.1730 O.2   324  VAL324     -0.2864
    140  CB        21.6960   57.5280   84.2320 C.3   324  VAL324      0.0276
    141  CG1       22.3760   57.4090   85.5990 C.3   324  VAL324      0.0022
    142  CG2       20.2130   57.1920   84.3410 C.3   324  VAL324      0.0022
    143  N         21.9270   63.1950   75.6910 N.3   334  ASP334     -0.1239
    144  CA        22.2790   61.8190   75.3870 C.3   334  ASP334      0.1674
    145  C         21.0090   61.0910   74.9520 C.2   334  ASP334      0.2266
    146  O         20.1610   60.7600   75.7830 O.2   334  ASP334     -0.2867
    147  CB        22.8990   61.1740   76.6250 C.3   334  ASP334      0.1410
    148  CG        23.3800   59.7600   76.3810 C.2   334  ASP334      0.3668
    149  OD1       22.9650   59.1330   75.3890 O.co2 334  ASP334     -0.2456
    150  OD2       24.1800   59.1960   77.1510 O.co2 334  ASP334     -0.2456
@<TRIPOS>BOND
     1    12    11    1
     2    11     8    1
     3    98    97    1
     4     8     7    1
     5     8     9    1
     6     7     3   am
     7    97    99    1
     8    97    94    1
     9     1     2    1
    10     3     4    2
    11     3     2    1
    12     2     5    1
    13     9    10    2
    14     9    13   am
    15    73    72    2
    16    72    71    1
    17    13    14    1
    18   103   102    2
    19    92    91    2
    20    94    93    1
    21    94    95    1
    22    71    70    1
    23    71    74    1
    24    16    15    2
    25    91    93   am
    26    91    90    1
    27     5     6    1
    28    15    14    1
    29    14    17    1
    30    89    90    1
    31   102   101    1
    32    95   100   am
    33    95    96    2
    34   100   101    1
    35    74    75    1
    36   101   104    1
    37    17    18    1
    38    75    76    1
    39    76    77    1
    40   104   105    1
    41    80    81    2
    42    80    79    1
    43    24    25    1
    44    18    19    1
    45    78    79    1
    46    27    26    2
    47    79    82    1
    48   105   106   ar
    49   105   107   ar
    50    25    26    1
    51    25    28    1
    52   145   144    1
    53   145   146    2
    54    19    20    1
    55   106   108   ar
    56   107   109   ar
    57   144   143    1
    58   144   147    1
    59   149   148   ar
    60    82    83    1
    61    28    29    1
    62    83    84    1
    63    20    21    2
    64   108   109   ar
    65   148   147    1
    66   148   150   ar
    67    87    86    1
    68    22    21    1
    69    21    23    1
    70    29    30    1
    71    84    85    1
    72    86    85    2
    73    86    88    1
    74    30    31    1
    75   127   125    1
    76    61    62    2
    77    61    60    1
    78    33    32    1
    79    31    32    2
    80   126   125    1
    81   110   111    1
    82    32    34    1
    83    42    44   ar
    84    42    40   ar
    85   113   112    2
    86   125   122    1
    87   116   115    1
    88   116   117    1
    89    44    43   ar
    90   124   123    2
    91   122   123    1
    92   122   121    1
    93    60    59    1
    94    60    63    1
    95    39    40    1
    96    39    36    1
    97    40    41   ar
    98   115   114    1
    99   119   118    1
   100   112   111    1
   101   111   114    1
   102    64    63    1
   103    64    65    1
   104   123   128   am
   105    38    37    2
   106    35    36    1
   107    45    46    1
   108   117   118    2
   109    37    36    1
   110   118   120    1
   111    43    41   ar
   112    66    65    1
   113    66    67    2
   114   128   129    1
   115    69    67    1
   116    67    68    1
   117    51    53   ar
   118    51    50   ar
   119    48    47    2
   120    53    54   ar
   121    46    47    1
   122    46    49    1
   123   129   130    1
   124   132   133    1
   125   132   130   am
   126    50    49    1
   127    50    52   ar
   128    54    56   ar
   129    54    52   ar
   130    56    58   ar
   131   133   134    1
   132   135   134    2
   133    52    55   ar
   134   130   131    2
   135   134   136   am
   136    58    57   ar
   137    55    57   ar
   138   136   137    1
   139   137   140    1
   140   137   138    1
   141   139   138    2
   142   140   142    1
   143   140   141    1
