@<TRIPOS>MOLECULE
tmp/1u71A00.pdb
 168 161 0 0 0
SMALL
GASTEIGER

@<TRIPOS>ATOM
      1  N         20.9650   11.8710   -2.9400 N.3     7  ILE7       -0.1231
      2  CA        22.0290   11.9830   -3.9280 C.3     7  ILE7        0.1692
      3  C         23.1530   11.1800   -3.2980 C.2     7  ILE7        0.2592
      4  O         23.3490   11.3580   -2.0950 O.2     7  ILE7       -0.2718
      5  CB        22.3040   13.4560   -4.3690 C.3     7  ILE7        0.0266
      6  CG1       23.3860   13.5280   -5.5230 C.3     7  ILE7        0.0019
      7  CG2       22.6810   14.3100   -3.1190 C.3     7  ILE7        0.0020
      8  CD1       23.4610   15.0190   -6.0320 C.3     7  ILE7        0.0001
      9  N         23.8200   10.3270   -4.0620 N.am    8  VAL8       -0.1966
     10  CA        24.9280    9.4720   -3.6960 C.3     8  VAL8        0.1727
     11  C         25.8990    9.1540   -4.8540 C.2     8  VAL8        0.2612
     12  O         25.4640    9.0470   -6.0060 O.2     8  VAL8       -0.2715
     13  CB        24.3220    8.1350   -3.1240 C.3     8  VAL8        0.0290
     14  CG1       23.7090    7.2530   -4.1740 C.3     8  VAL8        0.0023
     15  CG2       25.2770    7.1780   -2.3830 C.3     8  VAL8        0.0023
     16  N         27.1940    8.9180   -4.5440 N.am    9  ALA9       -0.2031
     17  CA        28.1510    8.4530   -5.5850 C.3     9  ALA9        0.1283
     18  C         28.3450    7.0460   -5.0820 C.3     9  ALA9        0.2036
     19  O         28.4290    7.0490   -3.8470 O.3     9  ALA9       -0.2185
     20  CB        29.3670    9.3770   -5.5500 C.3     9  ALA9        0.0262
     21  N         30.0690    3.2590   -0.4930 N.3    16  ILE16      -0.1231
     22  CA        29.9290    4.7130   -0.3960 C.3    16  ILE16       0.1692
     23  C         31.0100    5.2970    0.5240 C.2    16  ILE16       0.2592
     24  O         31.0800    6.5450    0.5380 O.2    16  ILE16      -0.2718
     25  CB        28.5020    5.2000   -0.0060 C.3    16  ILE16       0.0266
     26  CG1       28.1110    4.7260    1.4560 C.3    16  ILE16       0.0019
     27  CG2       27.4410    4.7380   -1.0100 C.3    16  ILE16       0.0020
     28  CD1       26.7210    5.2020    1.8210 C.3    16  ILE16       0.0001
     29  N         31.7950    4.5410    1.3010 N.am   17  GLY17      -0.1957
     30  CA        32.7330    5.2900    2.1820 C.3    17  GLY17       0.1869
     31  C         33.7690    4.2260    2.6240 C.2    17  GLY17       0.2309
     32  O         33.4460    3.0890    2.4980 O.2    17  GLY17      -0.2863
     33  N         35.1360    6.7450    6.9000 N.3    20  GLY20      -0.1210
     34  CA        34.4980    8.0700    6.7760 C.3    20  GLY20       0.1956
     35  C         34.9370    8.7470    5.4750 C.2    20  GLY20       0.2612
     36  O         34.2560    9.7440    5.0420 O.2    20  GLY20      -0.2717
     37  N         35.9360    8.3020    4.7430 N.am   21  ASP21      -0.1959
     38  CA        36.3000    9.0340    3.5100 C.3    21  ASP21       0.1840
     39  C         35.6800    8.3850    2.2830 C.2    21  ASP21       0.2621
     40  O         35.1890    7.2530    2.3550 O.2    21  ASP21      -0.2715
     41  CB        37.8360    8.9390    3.4060 C.3    21  ASP21       0.1450
     42  CG        38.5450   10.1320    2.7710 C.2    21  ASP21       0.3671
     43  OD1       38.0560   11.2480    2.4730 O.co2  21  ASP21      -0.2456
     44  OD2       39.7580    9.8530    2.5680 O.co2  21  ASP21      -0.2456
     45  N         35.8620    9.1010    1.2030 N.am   22  ARG22      -0.1977
     46  CA        35.4800    8.6020   -0.1500 C.3    22  ARG22       0.1597
     47  C         36.4640    7.4460   -0.4600 C.2    22  ARG22       0.2287
     48  O         37.7210    7.5670   -0.3930 O.2    22  ARG22      -0.2864
     49  CB        35.6910    9.5660   -1.3170 C.3    22  ARG22       0.0334
     50  CG        35.0400   10.9270   -1.3520 C.3    22  ARG22       0.0492
     51  CD        35.7150   11.8240   -2.3640 C.3    22  ARG22       0.2205
     52  NE        36.0570   13.1710   -1.9350 N.pl3  22  ARG22      -0.0865
     53  CZ        36.0570   14.2950   -2.6520 C.cat  22  ARG22       0.5346
     54  NH1       35.6070   14.3910   -3.9030 N.pl3  22  ARG22       0.1354
     55  NH2       36.6630   15.4070   -2.1750 N.pl3  22  ARG22       0.1354
     56  N         32.4740   15.6610  -10.3770 N.3    30  GLU30      -0.1231
     57  CA        31.4010   14.8740   -9.7400 C.3    30  GLU30       0.1699
     58  C         30.9800   15.7520   -8.5430 C.2    30  GLU30       0.2592
     59  O         29.7980   15.9350   -8.1980 O.2    30  GLU30      -0.2718
     60  CB        31.8430   13.4940   -9.2810 C.3    30  GLU30       0.0402
     61  CG        30.9360   12.3270   -8.9510 C.3    30  GLU30       0.1161
     62  CD        29.8400   12.7240   -7.9730 C.2    30  GLU30       0.3649
     63  OE1       28.6770   12.4760   -7.9980 O.co2  30  GLU30      -0.2457
     64  OE2       30.2120   13.4320   -7.0070 O.co2  30  GLU30      -0.2457
     65  N         31.9650   16.4010   -7.9250 N.am   31  PHE31      -0.1976
     66  CA        31.7650   17.2620   -6.7270 C.3    31  PHE31       0.1639
     67  C         30.9750   18.5020   -7.0240 C.2    31  PHE31       0.2290
     68  O         30.0850   18.9330   -6.2680 O.2    31  PHE31      -0.2864
     69  CB        33.0730   17.5320   -5.9310 C.3    31  PHE31       0.0560
     70  CG        32.7660   18.3680   -4.7300 C.ar   31  PHE31      -0.0200
     71  CD1       32.1100   17.7480   -3.6410 C.ar   31  PHE31      -0.0042
     72  CD2       33.0670   19.7370   -4.7000 C.ar   31  PHE31      -0.0042
     73  CE1       31.8030   18.4810   -2.5180 C.ar   31  PHE31      -0.0003
     74  CE2       32.7840   20.3980   -3.4780 C.ar   31  PHE31      -0.0003
     75  CZ        32.1050   19.8290   -2.3780 C.ar   31  PHE31      -0.0000
     76  N         28.8290   18.9530   -9.4140 N.3    33  TYR33      -0.1227
     77  CA        27.4820   18.4420   -9.8220 C.3    33  TYR33       0.1736
     78  C         26.6430   18.2240   -8.5600 C.2    33  TYR33       0.2595
     79  O         25.4040   18.4300   -8.4980 O.2    33  TYR33      -0.2718
     80  CB        27.8790   17.1360  -10.5500 C.3    33  TYR33       0.0548
     81  CG        26.6630   16.2420  -10.5650 C.ar   33  TYR33      -0.0200
     82  CD1       26.5040   15.2610   -9.5930 C.ar   33  TYR33      -0.0009
     83  CD2       25.6910   16.4910  -11.5430 C.ar   33  TYR33      -0.0009
     84  CE1       25.3450   14.5190   -9.5540 C.ar   33  TYR33       0.0417
     85  CE2       24.5270   15.7120  -11.5120 C.ar   33  TYR33       0.0417
     86  CZ        24.4320   14.7390  -10.5360 C.ar   33  TYR33       0.1957
     87  OH        23.3110   14.0230  -10.5750 O.3    33  TYR33      -0.2866
     88  N         27.3330   17.8200   -7.5110 N.am   34  PHE34      -0.1976
     89  CA        26.7860   17.5290   -6.1720 C.3    34  PHE34       0.1639
     90  C         26.4170   18.8880   -5.5620 C.2    34  PHE34       0.2290
     91  O         25.3140   18.9610   -5.0590 O.2    34  PHE34      -0.2864
     92  CB        27.5750   16.5990   -5.2620 C.3    34  PHE34       0.0560
     93  CG        27.2510   16.7180   -3.7960 C.ar   34  PHE34      -0.0200
     94  CD1       26.2630   15.9070   -3.2010 C.ar   34  PHE34      -0.0042
     95  CD2       27.9200   17.6710   -3.0420 C.ar   34  PHE34      -0.0042
     96  CE1       25.9010   16.0180   -1.8820 C.ar   34  PHE34      -0.0003
     97  CE2       27.6050   17.7930   -1.6470 C.ar   34  PHE34      -0.0003
     98  CZ        26.5810   16.9710   -1.0970 C.ar   34  PHE34      -0.0000
     99  N         28.5280   11.7380    8.2760 N.3    56  THR56      -0.1218
    100  CA        28.7450   12.3230    6.9150 C.3    56  THR56       0.1862
    101  C         29.1940   13.7590    7.2040 C.2    56  THR56       0.2287
    102  O         30.1320   14.2120    6.5100 O.2    56  THR56      -0.2866
    103  CB        27.4310   12.2660    6.0570 C.3    56  THR56       0.1770
    104  OG1       27.3550   10.7910    5.9530 O.3    56  THR56      -0.2211
    105  CG2       27.4380   12.9840    4.7150 C.3    56  THR56       0.0375
    106  N         32.8570   13.9100    7.9910 N.3    59  SER59      -0.1202
    107  CA        33.6930   13.5220    6.8740 C.3    59  SER59       0.2020
    108  C         33.7760   14.6890    5.9110 C.2    59  SER59       0.2619
    109  O         34.4220   14.4350    4.8820 O.2    59  SER59      -0.2717
    110  CB        32.9260   12.3810    6.1580 C.3    59  SER59       0.2103
    111  OG        32.0220   13.0260    5.1840 O.3    59  SER59      -0.2182
    112  N         33.1780   15.8430    6.0980 N.am   60  ILE60      -0.1966
    113  CA        33.3160   16.9370    5.1220 C.3    60  ILE60       0.1712
    114  C         34.4510   17.8240    5.6410 C.2    60  ILE60       0.2458
    115  O         34.4710   18.2360    6.8320 O.2    60  ILE60      -0.2730
    116  CB        32.0170   17.8410    4.9650 C.3    60  ILE60       0.0289
    117  CG1       30.8950   17.0530    4.2390 C.3    60  ILE60       0.0022
    118  CG2       32.2990   19.1890    4.2890 C.3    60  ILE60       0.0023
    119  CD1       29.4960   17.3440    4.8190 C.3    60  ILE60       0.0001
    120  N         35.4090   18.0490    4.7540 N.am   61  PRO61      -0.2727
    121  CA        36.5260   18.9440    5.1300 C.3    61  PRO61       0.1402
    122  C         35.9180   20.1250    5.8940 C.2    61  PRO61       0.2269
    123  O         34.9360   20.7300    5.4600 O.2    61  PRO61      -0.2865
    124  CB        37.0500   19.3660    3.7550 C.3    61  PRO61       0.0296
    125  CG        36.7250   18.2060    2.8600 C.3    61  PRO61       0.0237
    126  CD        35.4340   17.5840    3.3700 C.3    61  PRO61       0.0939
    127  N         34.6660   23.2040    4.2280 N.3    64  ASN64      -0.1240
    128  CA        33.4330   23.0710    3.4260 C.3    64  ASN64       0.1653
    129  C         32.1680   22.9750    4.3170 C.2    64  ASN64       0.2266
    130  O         31.1070   22.6080    3.7700 O.2    64  ASN64      -0.2867
    131  CB        33.5930   21.8400    2.5680 C.3    64  ASN64       0.1155
    132  CG        34.4660   21.8970    1.3390 C.2    64  ASN64       0.2627
    133  OD1       34.8290   22.9770    0.8190 O.2    64  ASN64      -0.2716
    134  ND2       34.7950   20.7360    0.7840 N.am   64  ASN64      -0.0877
    135  N         27.6140   23.3810    4.3770 N.3    67  LEU67      -0.1245
    136  CA        27.5670   23.3540    2.8780 C.3    67  LEU67       0.1561
    137  C         26.9230   24.7190    2.6460 C.2    67  LEU67       0.2260
    138  O         25.8200   24.9000    3.2150 O.2    67  LEU67      -0.2867
    139  CB        26.8320   22.1100    2.4540 C.3    67  LEU67       0.0270
    140  CG        27.5350   20.7690    2.5760 C.3    67  LEU67       0.0019
    141  CD1       26.4820   19.7700    2.0740 C.3    67  LEU67       0.0001
    142  CD2       28.8010   20.7200    1.6930 C.3    67  LEU67       0.0001
    143  N         22.0370   13.5650    1.8760 N.3   115  VAL115     -0.1301
    144  CA        23.3660   13.3140    1.3260 C.3   115  VAL115      0.1246
    145  C         24.1280   12.2480    2.0510 C.3   115  VAL115      0.2009
    146  O         25.3210   12.2910    1.7570 O.3   115  VAL115     -0.2188
    147  CB        24.0560   14.6800    1.2670 C.3   115  VAL115      0.0202
    148  CG1       23.1260   15.7230    0.6340 C.3   115  VAL115      0.0016
    149  CG2       24.4180   15.2550    2.6500 C.3   115  VAL115      0.0016
    150  N         19.9720    6.8910    4.3060 N.3   121  TYR121     -0.1241
    151  CA        19.3710    6.6060    2.9730 C.3   121  TYR121      0.1605
    152  C         18.3980    5.4280    3.0830 C.2   121  TYR121      0.2264
    153  O         17.3860    5.4950    2.4160 O.2   121  TYR121     -0.2867
    154  CB        20.3460    6.1700    1.8750 C.3   121  TYR121      0.0534
    155  CG        21.4110    7.1020    1.4140 C.ar  121  TYR121     -0.0201
    156  CD1       22.7670    6.7410    1.5540 C.ar  121  TYR121     -0.0009
    157  CD2       21.0810    8.3650    0.8480 C.ar  121  TYR121     -0.0009
    158  CE1       23.7640    7.6070    1.1300 C.ar  121  TYR121      0.0417
    159  CE2       22.1030    9.1960    0.3620 C.ar  121  TYR121      0.0417
    160  CZ        23.4280    8.8240    0.5550 C.ar  121  TYR121      0.1957
    161  OH        24.4010    9.6290    0.0410 O.3   121  TYR121     -0.2866
    162  N         25.2920    8.4000   -8.6860 N.3   136  THR136     -0.1218
    163  CA        26.4860    8.5810   -9.4680 C.3   136  THR136      0.1862
    164  C         27.1520    7.2150   -9.4860 C.2   136  THR136      0.2287
    165  O         27.6920    6.8690   -8.4180 O.2   136  THR136     -0.2866
    166  CB        27.4900    9.7170   -9.0760 C.3   136  THR136      0.1770
    167  OG1       26.8050   10.9900   -9.0830 O.3   136  THR136     -0.2211
    168  CG2       28.6430    9.6560  -10.0560 C.3   136  THR136      0.0375
@<TRIPOS>BOND
     1    83    85   ar
     2    83    81   ar
     3    85    86   ar
     4    87    86    1
     5    81    80    1
     6    81    82   ar
     7    80    77    1
     8    86    84   ar
     9    56    57    1
    10   168   166    1
    11    77    76    1
    12    77    78    1
    13    57    60    1
    14    57    58    1
    15    82    84   ar
    16   164   163    1
    17   164   165    2
    18   163   166    1
    19   163   162    1
    20    60    61    1
    21   167   166    1
    22    61    62    1
    23    78    79    2
    24    78    88   am
    25    58    59    2
    26    58    65   am
    27    63    62   ar
    28    62    64   ar
    29    65    66    1
    30    88    89    1
    31    67    66    1
    32    67    68    2
    33    66    69    1
    34    89    90    1
    35    89    92    1
    36     8     6    1
    37    12    11    2
    38    69    70    1
    39    17    20    1
    40    17    18    1
    41    17    16    1
    42    90    91    2
    43     6     5    1
    44    92    93    1
    45    18    19    1
    46    11    16   am
    47    11    10    1
    48    70    72   ar
    49    70    71   ar
    50    72    74   ar
    51     5     2    1
    52     5     7    1
    53    14    13    1
    54     9    10    1
    55     9     3   am
    56     2     3    1
    57     2     1    1
    58    54    53    1
    59    93    94   ar
    60    93    95   ar
    61    10    13    1
    62    71    73   ar
    63    74    75   ar
    64     3     4    2
    65    94    96   ar
    66    13    15    1
    67    95    97   ar
    68    53    55    1
    69    53    52    2
    70    73    75   ar
    71    51    52    1
    72    51    50    1
    73    96    98   ar
    74    97    98   ar
    75    50    49    1
    76    49    46    1
    77    27    25    1
    78    21    22    1
    79    47    48    2
    80    47    46    1
    81    22    25    1
    82    22    23    1
    83    46    45    1
    84    25    26    1
    85   161   160    1
    86   159   160   ar
    87   159   157   ar
    88    23    24    2
    89    23    29   am
    90   160   158   ar
    91   148   147    1
    92   134   132   am
    93   133   132    2
    94   157   155   ar
    95   158   156   ar
    96    45    39   am
    97   147   144    1
    98   147   149    1
    99    29    30    1
   100   144   143    1
   101   144   145    1
   102   132   131    1
   103   155   156   ar
   104   155   154    1
   105    26    28    1
   106   142   140    1
   107   146   145    1
   108   154   151    1
   109   141   140    1
   110    30    31    1
   111    39    40    2
   112    39    38    1
   113   153   152    2
   114   139   140    1
   115   139   136    1
   116    43    42   ar
   117    32    31    2
   118    44    42   ar
   119   131   128    1
   120   137   136    1
   121   137   138    2
   122    42    41    1
   123   125   126    1
   124   125   124    1
   125   136   135    1
   126   151   152    1
   127   151   150    1
   128   126   120    1
   129    41    38    1
   130   128   127    1
   131   128   129    1
   132    38    37    1
   133   124   121    1
   134   130   129    2
   135   117   119    1
   136   117   116    1
   137   118   116    1
   138   105   103    1
   139    37    35   am
   140   120   121    1
   141   120   114   am
   142   109   108    2
   143   116   113    1
   144    36    35    2
   145   113   114    1
   146   113   112    1
   147   121   122    1
   148   111   110    1
   149   123   122    2
   150    35    34    1
   151   114   115    2
   152   108   112   am
   153   108   107    1
   154   104   103    1
   155   103   100    1
   156   110   107    1
   157   102   101    2
   158    34    33    1
   159   107   106    1
   160   100   101    1
   161   100    99    1
