@<TRIPOS>MOLECULE
tmp/1u76A00.pdb
 218 214 0 0 0
SMALL
GASTEIGER

@<TRIPOS>ATOM
      1  N         51.6130   99.2730  -94.0510 N.3    40  MET40      -0.1245
      2  CA        51.9370   97.9820  -94.6290 C.3    40  MET40       0.1570
      3  C         53.4400   98.0480  -94.7910 C.2    40  MET40       0.2261
      4  O         54.0070   99.1310  -94.7550 O.2    40  MET40      -0.2867
      5  CB        51.3010   97.8500  -96.0120 C.3    40  MET40       0.0387
      6  CG        49.8360   97.4550  -96.0560 C.3    40  MET40       0.0595
      7  SD        49.1990   97.8310  -97.7120 S.3    40  MET40      -0.1393
      8  CE        49.5340   96.3270  -98.5350 C.3    40  MET40       0.0692
      9  N         56.9510   95.0320  -98.9180 N.3    43  SER43      -0.1202
     10  CA        56.4380   93.8060  -99.5170 C.3    43  SER43       0.2020
     11  C         54.9210   93.6280  -99.5070 C.2    43  SER43       0.2619
     12  O         54.3960   92.7740 -100.2220 O.2    43  SER43      -0.2717
     13  CB        57.0820   92.6050  -98.8300 C.3    43  SER43       0.2103
     14  OG        58.4930   92.7010  -98.8720 O.3    43  SER43      -0.2182
     15  N         54.2170   94.4230  -98.7120 N.am   44  HIS44      -0.1961
     16  CA        52.7630   94.3070  -98.6240 C.3    44  HIS44       0.1787
     17  C         52.3390   92.9340  -98.1330 C.2    44  HIS44       0.2620
     18  O         51.3200   92.3960  -98.5600 O.2    44  HIS44      -0.2715
     19  CB        52.1090   94.5990  -99.9700 C.3    44  HIS44       0.0785
     20  CG        52.0210   96.0580 -100.2880 C.ar   44  HIS44       0.0821
     21  ND1       50.9900   96.5950 -101.0290 N.ar   44  HIS44      -0.2267
     22  CD2       52.8040   97.1010  -99.9240 C.ar   44  HIS44       0.1154
     23  CE1       51.1380   97.9050 -101.1030 C.ar   44  HIS44       0.1986
     24  NE2       52.2310   98.2390 -100.4400 N.ar   44  HIS44      -0.2212
     25  N         53.1340   92.3970  -97.2110 N.am   45  VAL45      -0.1963
     26  CA        52.9230   91.0890  -96.6020 C.3    45  VAL45       0.1727
     27  C         52.5810   91.2670  -95.1060 C.2    45  VAL45       0.2617
     28  O         52.0970   90.3460  -94.4390 O.2    45  VAL45      -0.2715
     29  CB        54.2180   90.2360  -96.7550 C.3    45  VAL45       0.0290
     30  CG1       54.0830   88.9220  -96.0360 C.3    45  VAL45       0.0023
     31  CG2       54.5000   89.9850  -98.2290 C.3    45  VAL45       0.0023
     32  N         52.8220   92.4630  -94.5810 N.am   46  SER46      -0.1936
     33  CA        52.5530   92.7130  -93.1740 C.3    46  SER46       0.2055
     34  C         52.1270   94.1370  -92.9050 C.2    46  SER46       0.2642
     35  O         52.2440   95.0090  -93.7710 O.2    46  SER46      -0.2714
     36  CB        53.7870   92.3970  -92.3270 C.3    46  SER46       0.2130
     37  OG        54.8500   93.2680  -92.6390 O.3    46  SER46      -0.2179
     38  N         51.6470   94.3600  -91.6840 N.am   47  LEU47      -0.1977
     39  CA        51.1670   95.6690  -91.2550 C.3    47  LEU47       0.1596
     40  C         51.7200   95.9710  -89.8640 C.2    47  LEU47       0.2287
     41  O         51.6720   95.1260  -88.9800 O.2    47  LEU47      -0.2864
     42  CB        49.6330   95.6660  -91.2110 C.3    47  LEU47       0.0297
     43  CG        48.9270   96.9720  -90.8560 C.3    47  LEU47       0.0022
     44  CD1       48.7110   97.7710  -92.1180 C.3    47  LEU47       0.0001
     45  CD2       47.6030   96.6860  -90.1990 C.3    47  LEU47       0.0001
     46  N         48.6800  104.0850  -98.7010 N.3   124  GLU124     -0.1231
     47  CA        47.4830  103.2720  -98.8660 C.3   124  GLU124      0.1699
     48  C         47.0190  102.7910  -97.4930 C.2   124  GLU124      0.2592
     49  O         47.6490  101.9310  -96.8820 O.2   124  GLU124     -0.2718
     50  CB        47.8130  102.0850  -99.7730 C.3   124  GLU124      0.0402
     51  CG        46.6220  101.3290 -100.3250 C.3   124  GLU124      0.1161
     52  CD        47.0440  100.2840 -101.3410 C.2   124  GLU124      0.3649
     53  OE1       47.7090  100.6520 -102.3340 O.co2 124  GLU124     -0.2457
     54  OE2       46.7170   99.0950 -101.1510 O.co2 124  GLU124     -0.2457
     55  N         45.9230  103.3610  -97.0030 N.am  125  GLN125     -0.1966
     56  CA        45.3970  102.9910  -95.6930 C.3   125  GLN125      0.1733
     57  C         44.6240  101.6800  -95.6790 C.2   125  GLN125      0.2616
     58  O         43.8860  101.3600  -96.6110 O.2   125  GLN125     -0.2715
     59  CB        44.5200  104.1160  -95.1290 C.3   125  GLN125      0.0408
     60  CG        45.3060  105.2210  -94.4350 C.3   125  GLN125      0.0908
     61  CD        45.9280  104.7600  -93.1250 C.2   125  GLN125      0.2608
     62  OE1       46.6640  103.7740  -93.0800 O.2   125  GLN125     -0.2717
     63  NE2       45.6320  105.4770  -92.0510 N.am  125  GLN125     -0.0878
     64  N         44.8110  100.9330  -94.5980 N.am  126  LEU126     -0.1963
     65  CA        44.1650   99.6480  -94.4020 C.3   126  LEU126      0.1728
     66  C         43.3950   99.6400  -93.0830 C.2   126  LEU126      0.2617
     67  O         43.6950  100.4150  -92.1750 O.2   126  LEU126     -0.2715
     68  CB        45.2220   98.5460  -94.3900 C.3   126  LEU126      0.0311
     69  CG        45.6450   97.9510  -95.7270 C.3   126  LEU126      0.0022
     70  CD1       46.6310   96.8230  -95.5050 C.3   126  LEU126      0.0001
     71  CD2       44.4220   97.4380  -96.4380 C.3   126  LEU126      0.0001
     72  N         42.3980   98.7680  -92.9870 N.am  127  GLY127     -0.1940
     73  CA        41.6180   98.6660  -91.7670 C.3   127  GLY127      0.2014
     74  C         41.6560   97.2460  -91.2200 C.2   127  GLY127      0.2639
     75  O         41.2560   96.2990  -91.9080 O.2   127  GLY127     -0.2714
     76  N         42.1460   97.0900  -89.9920 N.am  128  ILE128     -0.1963
     77  CA        42.2280   95.7720  -89.3700 C.3   128  ILE128      0.1712
     78  C         40.8580   95.3510  -88.8560 C.2   128  ILE128      0.2458
     79  O         40.1960   96.1000  -88.1400 O.2   128  ILE128     -0.2730
     80  CB        43.2370   95.7550  -88.1920 C.3   128  ILE128      0.0289
     81  CG1       42.8830   96.8430  -87.1720 C.3   128  ILE128      0.0022
     82  CG2       44.6450   95.9580  -88.7150 C.3   128  ILE128      0.0023
     83  CD1       43.8250   96.9040  -85.9700 C.3   128  ILE128      0.0001
     84  N         40.4070   94.1460  -89.2340 N.am  129  PRO129     -0.2727
     85  CA        39.1130   93.5970  -88.8230 C.3   129  PRO129      0.1402
     86  C         39.2250   93.0490  -87.4120 C.2   129  PRO129      0.2269
     87  O         39.7950   91.9760  -87.2110 O.2   129  PRO129     -0.2865
     88  CB        38.8690   92.4700  -89.8300 C.3   129  PRO129      0.0296
     89  CG        39.8060   92.7700  -90.9670 C.3   129  PRO129      0.0237
     90  CD        41.0190   93.2870  -90.2540 C.3   129  PRO129      0.0939
     91  N         39.1200   90.9390  -84.5900 N.3   131  GLN131     -0.1245
     92  CA        38.7190   89.5360  -84.5040 C.3   131  GLN131      0.1566
     93  C         39.2110   88.8060  -83.2600 C.2   131  GLN131      0.2260
     94  O         39.9210   89.3740  -82.4360 O.2   131  GLN131     -0.2867
     95  CB        39.1690   88.7720  -85.7530 C.3   131  GLN131      0.0367
     96  CG        40.6560   88.5370  -85.8840 C.3   131  GLN131      0.0905
     97  CD        40.9880   87.7540  -87.1500 C.2   131  GLN131      0.2608
     98  OE1       40.5030   86.6400  -87.3460 O.2   131  GLN131     -0.2717
     99  NE2       41.8090   88.3400  -88.0200 N.am  131  GLN131     -0.0878
    100  N         56.6140   76.7360  -89.6490 N.3   159  VAL159     -0.1245
    101  CA        55.2690   76.2580  -89.4100 C.3   159  VAL159      0.1561
    102  C         55.0650   76.3380  -87.8980 C.2   159  VAL159      0.2260
    103  O         55.7670   75.6830  -87.1300 O.2   159  VAL159     -0.2867
    104  CB        55.1040   74.7890  -89.8580 C.3   159  VAL159      0.0252
    105  CG1       53.6820   74.3260  -89.5870 C.3   159  VAL159      0.0019
    106  CG2       55.4450   74.6390  -91.3370 C.3   159  VAL159      0.0019
    107  N         51.7380   78.7130  -91.6260 N.3   202  THR202     -0.1218
    108  CA        53.0630   78.8620  -92.2200 C.3   202  THR202      0.1862
    109  C         53.4140   80.3330  -92.4470 C.2   202  THR202      0.2287
    110  O         52.6450   81.0730  -93.0680 O.2   202  THR202     -0.2866
    111  CB        53.1250   78.1300  -93.5640 C.3   202  THR202      0.1770
    112  OG1       52.6580   76.7810  -93.3880 O.3   202  THR202     -0.2211
    113  CG2       54.5590   78.1240  -94.1060 C.3   202  THR202      0.0375
    114  N         56.8300   83.3430  -93.1560 N.3   204  ALA204     -0.1245
    115  CA        58.1810   83.5480  -93.6780 C.3   204  ALA204      0.1562
    116  C         59.0760   84.0640  -92.5480 C.2   204  ALA204      0.2260
    117  O         58.8050   85.1130  -91.9610 O.2   204  ALA204     -0.2867
    118  CB        58.1580   84.5520  -94.8170 C.3   204  ALA204      0.0290
    119  N         60.3400   87.7720  -92.4510 N.3   207  TYR207     -0.1241
    120  CA        59.5930   88.8600  -91.8520 C.3   207  TYR207      0.1605
    121  C         59.5560   88.7650  -90.3460 C.2   207  TYR207      0.2264
    122  O         59.6470   89.7790  -89.6490 O.2   207  TYR207     -0.2867
    123  CB        58.1890   88.9240  -92.4460 C.3   207  TYR207      0.0534
    124  CG        58.2270   89.2690  -93.9240 C.ar  207  TYR207     -0.0201
    125  CD1       58.5430   88.2990  -94.8730 C.ar  207  TYR207     -0.0009
    126  CD2       58.0480   90.5850  -94.3640 C.ar  207  TYR207     -0.0009
    127  CE1       58.6900   88.6260  -96.2200 C.ar  207  TYR207      0.0417
    128  CE2       58.1930   90.9260  -95.7080 C.ar  207  TYR207      0.0417
    129  CZ        58.5190   89.9370  -96.6290 C.ar  207  TYR207      0.1957
    130  OH        58.7020   90.2440  -97.9570 O.3   207  TYR207     -0.2866
    131  N         43.6630   80.5280  -90.9150 N.3   228  ASP228     -0.1225
    132  CA        43.5650   81.3760  -92.0920 C.3   228  ASP228      0.1805
    133  C         43.4110   82.8880  -91.8410 C.2   228  ASP228      0.2598
    134  O         42.4880   83.5190  -92.3670 O.2   228  ASP228     -0.2718
    135  CB        42.4130   80.8740  -92.9780 C.3   228  ASP228      0.1424
    136  CG        42.4970   81.4000  -94.3950 C.2   228  ASP228      0.3668
    137  OD1       43.5300   81.1580  -95.0510 O.co2 228  ASP228     -0.2456
    138  OD2       41.5420   82.0550  -94.8590 O.co2 228  ASP228     -0.2456
    139  N         44.2990   83.4660  -91.0350 N.am  229  VAL229     -0.1966
    140  CA        44.2840   84.9100  -90.7830 C.3   229  VAL229      0.1712
    141  C         45.6950   85.3310  -90.4390 C.2   229  VAL229      0.2458
    142  O         46.5430   84.4920  -90.1350 O.2   229  VAL229     -0.2730
    143  CB        43.3550   85.3290  -89.6220 C.3   229  VAL229      0.0289
    144  CG1       41.9650   84.7770  -89.8500 C.3   229  VAL229      0.0023
    145  CG2       43.9270   84.8800  -88.2890 C.3   229  VAL229      0.0023
    146  N         45.9780   86.6390  -90.5070 N.am  230  PRO230     -0.2727
    147  CA        47.3150   87.1550  -90.1950 C.3   230  PRO230      0.1402
    148  C         47.7360   86.9090  -88.7430 C.2   230  PRO230      0.2269
    149  O         46.9570   87.0990  -87.8060 O.2   230  PRO230     -0.2865
    150  CB        47.1890   88.6480  -90.5100 C.3   230  PRO230      0.0296
    151  CG        46.1680   88.6810  -91.5960 C.3   230  PRO230      0.0237
    152  CD        45.1380   87.6990  -91.0940 C.3   230  PRO230      0.0939
    153  N         51.5070   92.5690  -87.9970 N.3   246  TYR246     -0.1227
    154  CA        50.6080   91.5820  -88.5700 C.3   246  TYR246      0.1736
    155  C         51.2740   90.9870  -89.7970 C.2   246  TYR246      0.2595
    156  O         51.6390   91.7190  -90.7130 O.2   246  TYR246     -0.2718
    157  CB        49.2970   92.2210  -89.0120 C.3   246  TYR246      0.0548
    158  CG        48.4380   92.7690  -87.9060 C.ar  246  TYR246     -0.0200
    159  CD1       48.5970   94.0750  -87.4520 C.ar  246  TYR246     -0.0009
    160  CD2       47.4180   92.0000  -87.3530 C.ar  246  TYR246     -0.0009
    161  CE1       47.7510   94.6010  -86.4830 C.ar  246  TYR246      0.0417
    162  CE2       46.5700   92.5130  -86.3810 C.ar  246  TYR246      0.0417
    163  CZ        46.7370   93.8090  -85.9520 C.ar  246  TYR246      0.1957
    164  OH        45.8880   94.3040  -84.9880 O.3   246  TYR246     -0.2866
    165  N         51.4180   89.6660  -89.8220 N.am  247  LEU247     -0.1966
    166  CA        52.0290   88.9970  -90.9620 C.3   247  LEU247      0.1728
    167  C         51.0010   88.0810  -91.6310 C.2   247  LEU247      0.2616
    168  O         50.3560   87.2620  -90.9650 O.2   247  LEU247     -0.2715
    169  CB        53.2520   88.1850  -90.5020 C.3   247  LEU247      0.0311
    170  CG        54.0750   87.4110  -91.5480 C.3   247  LEU247      0.0022
    171  CD1       54.5010   88.3300  -92.6690 C.3   247  LEU247      0.0001
    172  CD2       55.3060   86.8160  -90.8980 C.3   247  LEU247      0.0001
    173  N         50.8200   88.2350  -92.9400 N.am  248  ALA248     -0.1964
    174  CA        49.8840   87.3700  -93.6440 C.3   248  ALA248      0.1713
    175  C         50.5770   86.0270  -93.7860 C.2   248  ALA248      0.2458
    176  O         51.7810   85.9500  -94.0420 O.2   248  ALA248     -0.2730
    177  CB        49.5320   87.9360  -95.0290 C.3   248  ALA248      0.0333
    178  N         49.8280   84.9410  -93.5980 N.am  249  PRO249     -0.2716
    179  CA        50.4070   83.6030  -93.7130 C.3   249  PRO249      0.1536
    180  C         50.6570   83.2090  -95.1590 C.2   249  PRO249      0.2598
    181  O         50.3070   83.9420  -96.0850 O.2   249  PRO249     -0.2715
    182  CB        49.3430   82.7250  -93.0780 C.3   249  PRO249      0.0310
    183  CG        48.0770   83.4320  -93.4840 C.3   249  PRO249      0.0237
    184  CD        48.4130   84.8760  -93.1880 C.3   249  PRO249      0.0939
    185  N         51.2830   82.0510  -95.3440 N.am  250  LYS250     -0.1964
    186  CA        51.5070   81.5240  -96.6820 C.3   250  LYS250      0.1728
    187  C         50.4080   80.4850  -96.8570 C.2   250  LYS250      0.2616
    188  O         50.1100   79.7260  -95.9380 O.2   250  LYS250     -0.2715
    189  CB        52.8960   80.9010  -96.8090 C.3   250  LYS250      0.0311
    190  CG        53.9870   81.9370  -97.0380 C.3   250  LYS250      0.0038
    191  CD        55.3750   81.3760  -96.8460 C.3   250  LYS250      0.0206
    192  CE        55.9270   80.7540  -98.0990 C.3   250  LYS250      0.1093
    193  NZ        57.3590   80.3400  -97.8800 N.3   250  LYS250     -0.1314
    194  N         49.7870   80.4970  -98.0310 N.am  251  ILE251     -0.1963
    195  CA        48.6860   79.6080  -98.3680 C.3   251  ILE251      0.1727
    196  C         49.1650   78.5280  -99.3280 C.2   251  ILE251      0.2616
    197  O         50.1770   78.7070  -99.9990 O.2   251  ILE251     -0.2715
    198  CB        47.5370   80.4360  -99.0260 C.3   251  ILE251      0.0290
    199  CG1       46.5610   80.9270  -97.9600 C.3   251  ILE251      0.0022
    200  CG2       46.8000   79.6250 -100.0560 C.3   251  ILE251      0.0023
    201  CD1       47.1460   81.8960  -96.9840 C.3   251  ILE251      0.0001
    202  N         48.4460   77.4060  -99.3870 N.am  252  GLU252     -0.1963
    203  CA        48.7930   76.3100 -100.3030 C.3   252  GLU252      0.1733
    204  C         48.0160   76.4930 -101.6260 C.2   252  GLU252      0.2616
    205  O         46.8510   76.9100 -101.6020 O.2   252  GLU252     -0.2715
    206  CB        48.4470   74.9630  -99.6570 C.3   252  GLU252      0.0429
    207  CG        49.3220   74.6160  -98.4490 C.3   252  GLU252      0.1163
    208  CD        48.8630   75.3070  -97.1650 C.2   252  GLU252      0.3649
    209  OE1       47.6270   75.6440  -97.0200 O.co2 252  GLU252     -0.2457
    210  OE2       49.7120   75.5540  -96.2300 O.co2 252  GLU252     -0.2457
    211  N         48.6400   76.1850 -102.7680 N.am  253  ASP253     -0.1971
    212  CA        47.9610   76.3570 -104.0710 C.3   253  ASP253      0.1709
    213  C         47.4050   75.0660 -104.7010 C.2   253  ASP253      0.2293
    214  O         48.2240   74.3160 -105.2750 O.2   253  ASP253     -0.2864
    215  CB        48.8980   77.0720 -105.0750 C.3   253  ASP253      0.1436
    216  CG        49.1890   78.4880 -104.7500 C.2   253  ASP253      0.3671
    217  OD1       48.4150   79.1310 -103.9770 O.co2 253  ASP253     -0.2456
    218  OD2       50.1790   79.0460 -105.3300 O.co2 253  ASP253     -0.2456
@<TRIPOS>BOND
     1   218   216   ar
     2   214   213    2
     3   215   216    1
     4   215   212    1
     5   216   217   ar
     6   213   212    1
     7   212   211    1
     8   211   204   am
     9    53    52   ar
    10   204   205    2
    11   204   203    1
    12    52    54   ar
    13    52    51    1
    14    23    21   ar
    15    23    24   ar
    16    21    20   ar
    17    24    22   ar
    18    51    50    1
    19   203   206    1
    20   203   202    1
    21    20    19    1
    22    20    22   ar
    23    12    11    2
    24   200   198    1
    25   197   196    2
    26    19    16    1
    27    50    47    1
    28   206   207    1
    29    10    11    1
    30    10     9    1
    31    10    13    1
    32    11    15   am
    33   202   196   am
    34   196   195    1
    35   198   195    1
    36   198   199    1
    37    14    13    1
    38    47    46    1
    39    47    48    1
    40    15    16    1
    41    16    17    1
    42    18    17    2
    43     8     7    1
    44   207   208    1
    45   195   194    1
    46    31    29    1
    47    17    25   am
    48   192   193    1
    49   192   191    1
    50   194   187   am
    51   199   201    1
    52   130   129    1
    53     7     6    1
    54    48    55   am
    55    48    49    2
    56    25    26    1
    57   208   209   ar
    58   208   210   ar
    59   190   191    1
    60   190   189    1
    61    55    56    1
    62   187   186    1
    63   187   188    2
    64   189   186    1
    65    29    26    1
    66    29    30    1
    67   186   185    1
    68   129   127   ar
    69   129   128   ar
    70    58    57    2
    71    26    27    1
    72    71    69    1
    73   127   125   ar
    74   181   180    2
    75     6     5    1
    76     5     2    1
    77    69    70    1
    78    69    68    1
    79   128   126   ar
    80    56    57    1
    81    56    59    1
    82    57    64   am
    83   185   180   am
    84   180   179    1
    85    59    60    1
    86    27    32   am
    87    27    28    2
    88   137   136   ar
    89   177   174    1
    90   125   124   ar
    91   138   136   ar
    92   118   115    1
    93     3     4    2
    94     3     2    1
    95     2     1    1
    96    64    65    1
    97    32    33    1
    98    60    61    1
    99    65    68    1
   100    65    66    1
   101   136   135    1
   102   126   124   ar
   103   113   111    1
   104   176   175    2
   105   124   123    1
   106   175   174    1
   107   175   178   am
   108    35    34    2
   109   179   178    1
   110   179   182    1
   111   115   114    1
   112   115   116    1
   113   174   173    1
   114   178   184    1
   115   111   112    1
   116   111   108    1
   117   183   184    1
   118   183   182    1
   119    33    34    1
   120    33    36    1
   121    61    62    2
   122    61    63   am
   123    66    72   am
   124    66    67    2
   125   110   109    2
   126    72    73    1
   127   135   132    1
   128   173   167   am
   129    34    38   am
   130   171   170    1
   131    37    36    1
   132   116   117    2
   133   119   120    1
   134   109   108    1
   135   123   120    1
   136   134   133    2
   137   108   107    1
   138    44    43    1
   139   132   133    1
   140   132   131    1
   141    75    74    2
   142   120   121    1
   143   133   139   am
   144    73    74    1
   145    38    39    1
   146   167   168    2
   147   167   166    1
   148   151   152    1
   149   151   150    1
   150   170   172    1
   151   170   169    1
   152   106   104    1
   153    39    42    1
   154    39    40    1
   155    74    76   am
   156    42    43    1
   157   152   146    1
   158   139   140    1
   159    89    90    1
   160    89    88    1
   161   166   169    1
   162   166   165    1
   163    43    45    1
   164   140   141    1
   165   140   143    1
   166   156   155    2
   167   150   147    1
   168   146   141   am
   169   146   147    1
   170   141   142    2
   171   121   122    2
   172    90    84    1
   173   147   148    1
   174    76    77    1
   175    40    41    2
   176   104   105    1
   177   104   101    1
   178   144   143    1
   179    88    85    1
   180   165   155   am
   181   155   154    1
   182   100   101    1
   183   143   145    1
   184   101   102    1
   185    77    78    1
   186    77    80    1
   187    84    78   am
   188    84    85    1
   189   157   154    1
   190   157   158    1
   191    78    79    2
   192    85    86    1
   193   148   149    2
   194    82    80    1
   195   154   153    1
   196    80    81    1
   197    99    97   am
   198   158   159   ar
   199   158   160   ar
   200   102   103    2
   201   159   161   ar
   202    86    87    2
   203   160   162   ar
   204    98    97    2
   205    81    83    1
   206    97    96    1
   207   161   163   ar
   208   162   163   ar
   209   163   164    1
   210    96    95    1
   211    95    92    1
   212    91    92    1
   213    92    93    1
   214    93    94    2
