@<TRIPOS>MOLECULE
tmp/1u7gA00.pdb
 165 153 0 0 0
SMALL
GASTEIGER

@<TRIPOS>ATOM
      1  N         52.2350  -19.1350  -47.5770 N.3    26  PHE26      -0.1241
      2  CA        51.6540  -17.8290  -47.8370 C.3    26  PHE26       0.1605
      3  C         52.3460  -17.1710  -49.0070 C.2    26  PHE26       0.2264
      4  O         51.7210  -16.7300  -49.9790 O.2    26  PHE26      -0.2867
      5  CB        51.8500  -17.0490  -46.5370 C.3    26  PHE26       0.0534
      6  CG        51.2660  -15.6660  -46.5750 C.ar   26  PHE26      -0.0203
      7  CD1       49.9280  -15.4490  -46.3510 C.ar   26  PHE26      -0.0042
      8  CD2       52.1150  -14.5920  -46.8200 C.ar   26  PHE26      -0.0042
      9  CE1       49.4050  -14.1620  -46.3520 C.ar   26  PHE26      -0.0003
     10  CE2       51.6010  -13.3090  -46.8480 C.ar   26  PHE26      -0.0003
     11  CZ        50.2480  -13.0980  -46.6460 C.ar   26  PHE26      -0.0000
     12  N         52.0190  -16.2920  -53.6570 N.3    30  LEU30      -0.1245
     13  CA        52.2090  -14.9340  -54.1220 C.3    30  LEU30       0.1561
     14  C         53.3360  -14.7730  -55.1170 C.2    30  LEU30       0.2260
     15  O         53.4540  -13.7160  -55.7190 O.2    30  LEU30      -0.2867
     16  CB        52.5630  -13.9640  -52.9590 C.3    30  LEU30       0.0270
     17  CG        51.3710  -13.8290  -51.9820 C.3    30  LEU30       0.0019
     18  CD1       51.8390  -12.9030  -50.8650 C.3    30  LEU30       0.0001
     19  CD2       50.1100  -13.3550  -52.6770 C.3    30  LEU30       0.0001
     20  N         48.9720  -11.0020  -59.0830 N.3   184  PHE184     -0.1241
     21  CA        49.0900  -12.3390  -58.4940 C.3   184  PHE184      0.1605
     22  C         48.2440  -13.3300  -59.2730 C.2   184  PHE184      0.2264
     23  O         47.1410  -13.0230  -59.6790 O.2   184  PHE184     -0.2867
     24  CB        48.6020  -12.3260  -57.0530 C.3   184  PHE184      0.0534
     25  CG        49.4970  -11.4760  -56.1670 C.ar  184  PHE184     -0.0203
     26  CD1       48.9320  -10.4630  -55.4090 C.ar  184  PHE184     -0.0042
     27  CD2       50.8720  -11.7110  -56.0610 C.ar  184  PHE184     -0.0042
     28  CE1       49.6590   -9.6830  -54.5090 C.ar  184  PHE184     -0.0003
     29  CE2       51.5850  -10.9000  -55.1850 C.ar  184  PHE184     -0.0003
     30  CZ        51.0150   -9.8960  -54.4140 C.ar  184  PHE184     -0.0000
     31  N         38.7100   -4.8890  -44.0550 N.3   235  TRP235     -0.1241
     32  CA        39.3870   -4.9020  -45.3470 C.3   235  TRP235      0.1605
     33  C         38.3400   -5.1870  -46.4280 C.2   235  TRP235      0.2264
     34  O         38.3690   -4.5170  -47.4620 O.2   235  TRP235     -0.2867
     35  CB        40.4680   -5.9980  -45.3970 C.3   235  TRP235      0.0550
     36  CG        41.3540   -5.9160  -46.6070 C.ar  235  TRP235      0.0003
     37  CD1       41.0330   -6.0200  -47.9650 C.ar  235  TRP235      0.0946
     38  CD2       42.7780   -5.6870  -46.5830 C.ar  235  TRP235      0.0152
     39  NE1       42.1430   -5.8790  -48.7150 N.ar  235  TRP235     -0.2442
     40  CE2       43.2480   -5.6730  -47.9180 C.ar  235  TRP235      0.0810
     41  CE3       43.7220   -5.5050  -45.5540 C.ar  235  TRP235      0.0012
     42  CZ2       44.5680   -5.4800  -48.3150 C.ar  235  TRP235      0.0191
     43  CZ3       45.0340   -5.3210  -45.9410 C.ar  235  TRP235      0.0001
     44  CH2       45.4520   -5.3070  -47.3000 C.ar  235  TRP235      0.0015
     45  N         37.4540   -2.9090  -49.5200 N.3   239  GLU239     -0.1245
     46  CA        37.6660   -3.3970  -50.8770 C.3   239  GLU239      0.1567
     47  C         36.3730   -3.3830  -51.6700 C.2   239  GLU239      0.2260
     48  O         36.2990   -2.9970  -52.8400 O.2   239  GLU239     -0.2867
     49  CB        38.2950   -4.7980  -50.7530 C.3   239  GLU239      0.0388
     50  CG        38.6130   -5.4270  -52.0570 C.3   239  GLU239      0.1160
     51  CD        39.1490   -6.8610  -51.9010 C.2   239  GLU239      0.3649
     52  OE1       38.6770   -7.6160  -51.0290 O.co2 239  GLU239     -0.2457
     53  OE2       40.0240   -7.2540  -52.6800 O.co2 239  GLU239     -0.2457
     54  N         35.8060    0.0240  -52.5840 N.3   242  LEU242     -0.1231
     55  CA        36.7850    0.6050  -53.5070 C.3   242  LEU242      0.1693
     56  C         36.6760   -0.0350  -54.8780 C.2   242  LEU242      0.2591
     57  O         36.7320    0.6110  -55.9210 O.2   242  LEU242     -0.2718
     58  CB        38.1630    0.4560  -52.8820 C.3   242  LEU242      0.0284
     59  CG        39.4110    0.9150  -53.6310 C.3   242  LEU242      0.0019
     60  CD1       39.4630    2.4420  -53.7170 C.3   242  LEU242      0.0001
     61  CD2       40.6670    0.2950  -52.9810 C.3   242  LEU242      0.0001
     62  N         36.4890   -1.3400  -54.9070 N.am  243  ARG243     -0.1980
     63  CA        36.5520   -2.1620  -56.1030 C.3   243  ARG243      0.1597
     64  C         35.2130   -2.7670  -56.5010 C.2   243  ARG243      0.2287
     65  O         35.0600   -3.2740  -57.6190 O.2   243  ARG243     -0.2864
     66  CB        37.5470   -3.3190  -55.8360 C.3   243  ARG243      0.0334
     67  CG        38.8610   -2.8450  -55.2140 C.3   243  ARG243      0.0492
     68  CD        39.7440   -2.4620  -56.3870 C.3   243  ARG243      0.2205
     69  NE        40.5100   -1.2340  -56.1940 N.pl3 243  ARG243     -0.0865
     70  CZ        41.8310   -1.4400  -56.0790 C.cat 243  ARG243      0.5346
     71  NH1       42.1300   -2.7350  -56.1620 N.pl3 243  ARG243      0.1354
     72  NH2       42.6580   -0.4340  -55.9040 N.pl3 243  ARG243      0.1354
     73  N         37.6380   -9.7930  -52.4130 N.3   247  SER247     -0.1217
     74  CA        38.4400  -10.8280  -53.0450 C.3   247  SER247      0.1889
     75  C         39.0540  -11.7280  -51.9950 C.2   247  SER247      0.2288
     76  O         39.1580  -11.3480  -50.8270 O.2   247  SER247     -0.2866
     77  CB        39.5730  -10.1620  -53.8090 C.3   247  SER247      0.2089
     78  OG        40.5140   -9.5230  -52.9490 O.3   247  SER247     -0.2183
     79  N         42.1930  -12.5230  -51.8210 N.3   249  LEU249     -0.1231
     80  CA        43.3890  -11.9250  -51.2910 C.3   249  LEU249      0.1693
     81  C         43.0370  -10.8090  -50.2990 C.2   249  LEU249      0.2592
     82  O         43.7930  -10.6160  -49.3340 O.2   249  LEU249     -0.2718
     83  CB        44.2870  -11.4290  -52.4180 C.3   249  LEU249      0.0284
     84  CG        45.6680  -10.9610  -51.9620 C.3   249  LEU249      0.0019
     85  CD1       46.2750  -11.9180  -50.9440 C.3   249  LEU249      0.0001
     86  CD2       46.5440  -10.8080  -53.1840 C.3   249  LEU249      0.0001
     87  N         41.9210  -10.1340  -50.5880 N.am  250  GLY250     -0.1957
     88  CA        41.5380   -9.0710  -49.6510 C.3   250  GLY250      0.1869
     89  C         41.1910   -9.6840  -48.2950 C.2   250  GLY250      0.2309
     90  O         41.5700   -9.1930  -47.2260 O.2   250  GLY250     -0.2863
     91  N         44.3780  -10.8100  -46.6100 N.3   253  SER253     -0.1217
     92  CA        45.1620   -9.6840  -46.1760 C.3   253  SER253      0.1889
     93  C         44.5400   -9.0340  -44.9530 C.2   253  SER253      0.2288
     94  O         45.2460   -8.6180  -44.0420 O.2   253  SER253     -0.2866
     95  CB        45.2180   -8.6570  -47.3480 C.3   253  SER253      0.2089
     96  OG        45.8850   -9.3030  -48.4380 O.3   253  SER253     -0.2183
     97  N         45.5290  -10.9950  -41.9620 N.3   256  ILE256     -0.1245
     98  CA        46.8720  -10.6770  -41.5000 C.3   256  ILE256      0.1561
     99  C         46.8880   -9.2950  -40.8280 C.2   256  ILE256      0.2260
    100  O         47.5710   -9.0520  -39.8540 O.2   256  ILE256     -0.2867
    101  CB        47.8640  -10.7740  -42.6890 C.3   256  ILE256      0.0252
    102  CG1       47.9100  -12.1590  -43.3060 C.3   256  ILE256      0.0019
    103  CG2       49.2480  -10.3140  -42.2540 C.3   256  ILE256      0.0019
    104  CD1       48.3330  -13.2800  -42.3180 C.3   256  ILE256      0.0001
    105  N         44.6080   -2.1040  -46.0660 N.3   286  LEU286     -0.1245
    106  CA        44.1470   -1.9020  -47.4380 C.3   286  LEU286      0.1561
    107  C         44.6840   -0.5760  -47.9880 C.2   286  LEU286      0.2260
    108  O         45.1860   -0.5000  -49.1030 O.2   286  LEU286     -0.2867
    109  CB        42.6230   -1.8920  -47.4340 C.3   286  LEU286      0.0270
    110  CG        42.0050   -1.5450  -48.8000 C.3   286  LEU286      0.0019
    111  CD1       42.4400   -2.5250  -49.8890 C.3   286  LEU286      0.0001
    112  CD2       40.4960   -1.5130  -48.6280 C.3   286  LEU286      0.0001
    113  N         48.4890   -1.1330  -48.7590 N.3   289  VAL289     -0.1231
    114  CA        48.9370   -1.9080  -49.9530 C.3   289  VAL289      0.1692
    115  C         48.5300   -1.1160  -51.1780 C.2   289  VAL289      0.2592
    116  O         49.2000   -1.2140  -52.2180 O.2   289  VAL289     -0.2718
    117  CB        48.4220   -3.3440  -50.0000 C.3   289  VAL289      0.0266
    118  CG1       48.9730   -4.0920  -48.7740 C.3   289  VAL289      0.0020
    119  CG2       46.9040   -3.4130  -50.1060 C.3   289  VAL289      0.0020
    120  N         47.4780   -0.3010  -50.9860 N.am  290  THR290     -0.1953
    121  CA        47.0120    0.5460  -52.1010 C.3   290  THR290      0.1897
    122  C         48.0890    1.5860  -52.3920 C.2   290  THR290      0.2313
    123  O         48.3880    1.8810  -53.5840 O.2   290  THR290     -0.2863
    124  CB        45.6590    1.2080  -51.8160 C.3   290  THR290      0.1794
    125  OG1       44.6830    0.1630  -51.5870 O.3   290  THR290     -0.2208
    126  CG2       45.1550    2.0590  -52.9870 C.3   290  THR290      0.0378
    127  N         51.0350   -0.1750  -54.1380 N.3   292  LYS292     -0.1245
    128  CA        50.7330   -0.3880  -55.5550 C.3   292  LYS292      0.1561
    129  C         50.9930    0.8870  -56.3340 C.2   292  LYS292      0.2260
    130  O         51.4030    0.8340  -57.5010 O.2   292  LYS292     -0.2867
    131  CB        49.2810   -0.8510  -55.7390 C.3   292  LYS292      0.0271
    132  CG        48.7920   -1.0430  -57.1810 C.3   292  LYS292      0.0035
    133  CD        49.7390   -1.9000  -58.0080 C.3   292  LYS292      0.0206
    134  CE        49.4890   -3.3620  -57.6490 C.3   292  LYS292      0.1093
    135  NZ        48.0640   -3.6990  -57.9390 N.3   292  LYS292     -0.1314
    136  N         51.6130   -6.2760  -58.5870 N.3   298  ASP298     -0.1239
    137  CA        51.5200   -7.0820  -57.3570 C.3   298  ASP298      0.1674
    138  C         52.8860   -7.6410  -57.0820 C.2   298  ASP298      0.2266
    139  O         53.5770   -8.1320  -57.9910 O.2   298  ASP298     -0.2867
    140  CB        50.5380   -8.2220  -57.5760 C.3   298  ASP298      0.1410
    141  CG        49.1030   -7.7900  -57.5470 C.2   298  ASP298      0.3668
    142  OD1       48.8420   -6.7190  -56.9500 O.co2 298  ASP298     -0.2456
    143  OD2       48.3360   -8.5810  -58.1180 O.co2 298  ASP298     -0.2456
    144  N         54.5070   -6.6030  -51.0650 N.3   302  ASP302     -0.1225
    145  CA        53.3110   -5.8800  -50.6260 C.3   302  ASP302      0.1805
    146  C         52.9330   -6.3250  -49.2060 C.2   302  ASP302      0.2597
    147  O         52.3420   -5.5230  -48.4500 O.2   302  ASP302     -0.2718
    148  CB        52.1250   -6.1750  -51.5550 C.3   302  ASP302      0.1424
    149  CG        52.3140   -5.6010  -52.9390 C.2   302  ASP302      0.3668
    150  OD1       51.6700   -6.0710  -53.9040 O.co2 302  ASP302     -0.2456
    151  OD2       53.1430   -4.6820  -53.0890 O.co2 302  ASP302     -0.2456
    152  N         53.2840   -7.5690  -48.8530 N.am  303  VAL303     -0.1980
    153  CA        53.0270   -8.0500  -47.4710 C.3   303  VAL303      0.1595
    154  C         53.5880   -7.0990  -46.4440 C.2   303  VAL303      0.2287
    155  O         53.0260   -6.8780  -45.3790 O.2   303  VAL303     -0.2864
    156  CB        53.6600   -9.4600  -47.3060 C.3   303  VAL303      0.0276
    157  CG1       53.6630   -9.9820  -45.8880 C.3   303  VAL303      0.0022
    158  CG2       52.8960  -10.4280  -48.2070 C.3   303  VAL303      0.0022
    159  N         51.4530   -4.4130  -45.1980 N.3   306  VAL306     -0.1245
    160  CA        50.4800   -4.7720  -44.1920 C.3   306  VAL306      0.1561
    161  C         51.1810   -4.8890  -42.8420 C.2   306  VAL306      0.2260
    162  O         50.6850   -4.3550  -41.8540 O.2   306  VAL306     -0.2867
    163  CB        49.7690   -6.0940  -44.5620 C.3   306  VAL306      0.0252
    164  CG1       48.8690   -6.5040  -43.3980 C.3   306  VAL306      0.0019
    165  CG2       48.9640   -5.9650  -45.8730 C.3   306  VAL306      0.0019
@<TRIPOS>BOND
     1    23    22    2
     2    22    21    1
     3    20    21    1
     4   136   137    1
     5    21    24    1
     6   143   141   ar
     7   133   134    1
     8   133   132    1
     9   139   138    2
    10   135   134    1
    11    65    64    2
    12   140   141    1
    13   140   137    1
    14   141   142   ar
    15   130   129    2
    16   137   138    1
    17   132   131    1
    18    24    25    1
    19    64    63    1
    20    68    69    1
    21    68    67    1
    22   129   128    1
    23    69    70    2
    24    25    27   ar
    25    25    26   ar
    26    71    70    1
    27    63    66    1
    28    63    62    1
    29    70    72    1
    30    27    29   ar
    31    57    56    2
    32    66    67    1
    33   131   128    1
    34    15    14    2
    35   128   127    1
    36    26    28   ar
    37    29    30   ar
    38    14    13    1
    39    62    56   am
    40    56    55    1
    41    28    30   ar
    42    13    12    1
    43    13    16    1
    44   150   149   ar
    45    77    74    1
    46    77    78    1
    47    60    59    1
    48    59    61    1
    49    59    58    1
    50   123   122    2
    51    55    58    1
    52    55    54    1
    53    86    84    1
    54   151   149   ar
    55    74    73    1
    56    74    75    1
    57   126   124    1
    58    16    17    1
    59   149   148    1
    60    48    47    2
    61    53    51   ar
    62    19    17    1
    63    83    84    1
    64    83    80    1
    65   122   121    1
    66   116   115    2
    67   121   124    1
    68   121   120    1
    69    50    51    1
    70    50    49    1
    71    75    76    2
    72    17    18    1
    73    84    85    1
    74    51    52   ar
    75    79    80    1
    76   124   125    1
    77    47    46    1
    78   148   145    1
    79    80    81    1
    80   115   120   am
    81   115   114    1
    82   144   145    1
    83    46    49    1
    84    46    45    1
    85   145   146    1
    86    87    81   am
    87    87    88    1
    88    81    82    2
    89   119   117    1
    90   117   114    1
    91   117   118    1
    92     4     3    2
    93   114   113    1
    94   111   110    1
    95    88    89    1
    96   146   152   am
    97   146   147    2
    98   108   107    2
    99     3     2    1
   100   152   153    1
   101   110   112    1
   102   110   109    1
   103    39    37   ar
   104    39    40   ar
   105    96    95    1
   106    42    40   ar
   107    42    44   ar
   108    89    90    2
   109   158   156    1
   110   107   106    1
   111    37    36   ar
   112    40    38   ar
   113     2     1    1
   114     2     5    1
   115   153   156    1
   116   153   154    1
   117    34    33    2
   118   106   109    1
   119   106   105    1
   120    95    92    1
   121   156   157    1
   122    44    43   ar
   123    10     8   ar
   124    10    11   ar
   125     8     6   ar
   126    11     9   ar
   127    91    92    1
   128    36    38   ar
   129    36    35    1
   130    38    41   ar
   131     6     5    1
   132     6     7   ar
   133   154   155    2
   134    33    32    1
   135     9     7   ar
   136    92    93    1
   137    43    41   ar
   138   165   163    1
   139    35    32    1
   140    32    31    1
   141   159   160    1
   142    93    94    2
   143   163   160    1
   144   163   164    1
   145   160   161    1
   146   102   101    1
   147   102   104    1
   148   161   162    2
   149   101   103    1
   150   101    98    1
   151    97    98    1
   152    98    99    1
   153    99   100    2
