@<TRIPOS>MOLECULE
tmp/1u7lA00.pdb
 79 78 0 0 0
SMALL
GASTEIGER

@<TRIPOS>ATOM
      1  N         17.6220  -12.0720  141.6640 N.3     2  TYR2       -0.1241
      2  CA        16.5770  -11.0980  141.3540 C.3     2  TYR2        0.1605
      3  C         16.5930  -10.8410  139.8420 C.2     2  TYR2        0.2264
      4  O         17.6650  -10.6010  139.2780 O.2     2  TYR2       -0.2867
      5  CB        16.8590   -9.8050  142.1190 C.3     2  TYR2        0.0534
      6  CG        15.7960   -8.7420  141.9890 C.ar    2  TYR2       -0.0201
      7  CD1       14.6980   -8.7270  142.8520 C.ar    2  TYR2       -0.0009
      8  CD2       15.8860   -7.7470  141.0110 C.ar    2  TYR2       -0.0009
      9  CE1       13.7140   -7.7600  142.7450 C.ar    2  TYR2        0.0417
     10  CE2       14.9030   -6.7710  140.8920 C.ar    2  TYR2        0.0417
     11  CZ        13.8190   -6.7860  141.7670 C.ar    2  TYR2        0.1957
     12  OH        12.8330   -5.8280  141.6870 O.3     2  TYR2       -0.2866
     13  N         15.1730   -8.4170  136.9010 N.3     4  ALA4       -0.1245
     14  CA        14.5310   -7.1150  136.7400 C.3     4  ALA4        0.1562
     15  C         13.4910   -7.2380  135.6380 C.2     4  ALA4        0.2260
     16  O         13.7450   -7.9270  134.6410 O.2     4  ALA4       -0.2867
     17  CB        15.5800   -6.0500  136.3680 C.3     4  ALA4        0.0290
     18  N         11.9460   -4.3940  133.7440 N.3     6  ASP6       -0.1239
     19  CA        11.9120   -2.9500  133.5330 C.3     6  ASP6        0.1674
     20  C         11.2590   -2.6230  132.2130 C.2     6  ASP6        0.2266
     21  O         11.3600   -3.3800  131.2480 O.2     6  ASP6       -0.2867
     22  CB        13.3260   -2.3830  133.5480 C.3     6  ASP6        0.1410
     23  CG        13.9980   -2.5330  134.9240 C.2     6  ASP6        0.3668
     24  OD1       13.3090   -2.3730  135.9460 O.co2   6  ASP6       -0.2456
     25  OD2       15.2310   -2.7940  134.9630 O.co2   6  ASP6       -0.2456
     26  N         14.8590   -6.4280  128.1250 N.3   329  PRO329     -0.2103
     27  CA        15.3410   -7.7160  128.6750 C.3   329  PRO329      0.1489
     28  C         16.1990   -7.4870  129.9320 C.2   329  PRO329      0.2418
     29  O         16.8800   -6.4600  130.0210 O.2   329  PRO329     -0.2734
     30  CB        16.2290   -8.2670  127.5640 C.3   329  PRO329      0.0282
     31  CG        15.8300   -7.5500  126.3260 C.3   329  PRO329      0.0208
     32  CD        15.3820   -6.1660  126.7740 C.3   329  PRO329      0.0893
     33  N         16.1480   -8.4200  130.9030 N.am  330  PRO330     -0.2718
     34  CA        16.9260   -8.2600  132.1360 C.3   330  PRO330      0.1535
     35  C         18.3670   -8.0370  131.7530 C.2   330  PRO330      0.2598
     36  O         18.8040   -8.4910  130.6850 O.2   330  PRO330     -0.2715
     37  CB        16.7520   -9.6050  132.8160 C.3   330  PRO330      0.0310
     38  CG        15.3400  -10.0090  132.3760 C.3   330  PRO330      0.0237
     39  CD        15.3870   -9.6770  130.9230 C.3   330  PRO330      0.0939
     40  N         19.0780   -7.2700  132.5840 N.am  331  LYS331     -0.1964
     41  CA        20.4890   -6.9600  132.3340 C.3   331  LYS331      0.1728
     42  C         20.8070   -6.1110  131.0980 C.2   331  LYS331      0.2616
     43  O         21.9860   -5.9140  130.7760 O.2   331  LYS331     -0.2715
     44  CB        21.3250   -8.2690  132.3370 C.3   331  LYS331      0.0311
     45  CG        21.1770   -9.0800  133.6170 C.3   331  LYS331      0.0038
     46  CD        22.1150   -8.4960  134.6530 C.3   331  LYS331      0.0206
     47  CE        21.7930   -8.9420  136.0310 C.3   331  LYS331      0.1093
     48  NZ        22.8560   -8.3460  136.9150 N.3   331  LYS331     -0.1314
     49  N         19.7870   -5.5580  130.4100 N.am  332  ASN332     -0.1958
     50  CA        20.0380   -4.7300  129.2480 C.3   332  ASN332      0.1819
     51  C         19.5060   -3.2720  129.3250 C.2   332  ASN332      0.2621
     52  O         19.4820   -2.5830  128.2870 O.2   332  ASN332     -0.2715
     53  CB        19.4750   -5.3970  127.9940 C.3   332  ASN332      0.1195
     54  CG        20.3550   -6.5490  127.5070 C.2   332  ASN332      0.2630
     55  OD1       21.0830   -6.4120  126.5290 O.2   332  ASN332     -0.2716
     56  ND2       20.3270   -7.6550  128.2250 N.am  332  ASN332     -0.0877
     57  N         19.1140   -2.8440  130.5200 N.am  333  LEU333     -0.1963
     58  CA        18.4660   -1.5050  130.7160 C.3   333  LEU333      0.1728
     59  C         19.4530   -0.3880  130.4530 C.2   333  LEU333      0.2617
     60  O         19.2170    0.4970  129.6510 O.2   333  LEU333     -0.2715
     61  CB        17.8630   -1.3620  132.1100 C.3   333  LEU333      0.0311
     62  CG        17.3130    0.0600  132.4200 C.3   333  LEU333      0.0022
     63  CD1       16.1060    0.2910  131.4550 C.3   333  LEU333      0.0001
     64  CD2       16.9010    0.2090  133.8420 C.3   333  LEU333      0.0001
     65  N         20.6090   -0.4630  131.1050 N.am  334  SER334     -0.1936
     66  CA        21.6460    0.5190  130.8520 C.3   334  SER334      0.2055
     67  C         22.0160    0.6340  129.3460 C.2   334  SER334      0.2642
     68  O         22.1080    1.7320  128.7930 O.2   334  SER334     -0.2714
     69  CB        22.8430    0.2260  131.8200 C.3   334  SER334      0.2130
     70  OG        23.7630    1.3070  131.8230 O.3   334  SER334     -0.2179
     71  N         22.2040   -0.4840  128.6490 N.am  335  LYS335     -0.1977
     72  CA        22.4460   -0.4810  127.2120 C.3   335  LYS335      0.1596
     73  C         21.3000    0.0570  126.3120 C.2   335  LYS335      0.2287
     74  O         21.5320    0.7670  125.3270 O.2   335  LYS335     -0.2864
     75  CB        22.8560   -1.8850  126.7370 C.3   335  LYS335      0.0298
     76  CG        23.1340   -1.9480  125.2700 C.3   335  LYS335      0.0038
     77  CD        24.3240   -2.8280  124.9570 C.3   335  LYS335      0.0206
     78  CE        25.4060   -2.0140  124.2240 C.3   335  LYS335      0.1093
     79  NZ        24.9240   -1.1400  123.0920 N.3   335  LYS335     -0.1314
@<TRIPOS>BOND
     1    79    78    1
     2    78    77    1
     3    77    76    1
     4    76    75    1
     5    74    73    2
     6    73    72    1
     7    31    32    1
     8    31    30    1
     9    55    54    2
    10    75    72    1
    11    32    26    1
    12    72    71    1
    13    54    53    1
    14    54    56   am
    15    30    27    1
    16    53    50    1
    17    26    27    1
    18    52    51    2
    19    71    67   am
    20    27    28    1
    21    68    67    2
    22    50    51    1
    23    50    49    1
    24    51    57   am
    25    67    66    1
    26    60    59    2
    27    28    29    2
    28    28    33   am
    29    49    42   am
    30    59    58    1
    31    59    65   am
    32    57    58    1
    33    36    35    2
    34    58    61    1
    35    43    42    2
    36    66    65    1
    37    66    69    1
    38    33    39    1
    39    33    34    1
    40    39    38    1
    41    42    41    1
    42    21    20    2
    43    63    62    1
    44    35    34    1
    45    35    40   am
    46    69    70    1
    47    61    62    1
    48    34    37    1
    49    20    19    1
    50    41    44    1
    51    41    40    1
    52    44    45    1
    53    38    37    1
    54    62    64    1
    55    19    22    1
    56    19    18    1
    57    22    23    1
    58    45    46    1
    59    16    15    2
    60    46    47    1
    61    23    25   ar
    62    23    24   ar
    63    15    14    1
    64    47    48    1
    65    17    14    1
    66    14    13    1
    67     4     3    2
    68     3     2    1
    69    10     8   ar
    70    10    11   ar
    71     8     6   ar
    72     2     1    1
    73     2     5    1
    74    12    11    1
    75    11     9   ar
    76     6     5    1
    77     6     7   ar
    78     9     7   ar
