@<TRIPOS>MOLECULE
tmp/1u88A00.pdb
 143 142 0 0 0
SMALL
GASTEIGER

@<TRIPOS>ATOM
      1  N         34.0570   32.0070  -12.4030 N.3     7  PHE7       -0.1227
      2  CA        34.0520   33.3270  -11.7700 C.3     7  PHE7        0.1736
      3  C         35.4600   33.8470  -11.8210 C.2     7  PHE7        0.2595
      4  O         36.3690   33.1120  -12.1660 O.2     7  PHE7       -0.2718
      5  CB        33.6200   33.2300  -10.3090 C.3     7  PHE7        0.0547
      6  CG        33.3880   34.5620   -9.6380 C.ar    7  PHE7       -0.0202
      7  CD1       32.2150   35.2710   -9.8560 C.ar    7  PHE7       -0.0042
      8  CD2       34.3170   35.0730   -8.7400 C.ar    7  PHE7       -0.0042
      9  CE1       31.9640   36.4650   -9.1850 C.ar    7  PHE7       -0.0003
     10  CE2       34.0770   36.2650   -8.0660 C.ar    7  PHE7       -0.0003
     11  CZ        32.8970   36.9640   -8.2860 C.ar    7  PHE7       -0.0000
     12  N         35.6500   35.1060  -11.4650 N.am    8  TRP8       -0.1976
     13  CA        36.9790   35.6840  -11.4860 C.3     8  TRP8        0.1640
     14  C         37.9280   34.8940  -10.5930 C.2     8  TRP8        0.2290
     15  O         37.6210   33.7810  -10.1700 O.2     8  TRP8       -0.2864
     16  CB        36.9170   37.1230  -11.0170 C.3     8  TRP8        0.0576
     17  CG        36.0220   37.9570  -11.8500 C.ar    8  TRP8        0.0006
     18  CD1       34.6960   38.2100  -11.6420 C.ar    8  TRP8        0.0946
     19  CD2       36.3890   38.6740  -13.0280 C.ar    8  TRP8        0.0152
     20  NE1       34.2170   39.0500  -12.6180 N.ar    8  TRP8       -0.2442
     21  CE2       35.2390   39.3490  -13.4820 C.ar    8  TRP8        0.0810
     22  CE3       37.5840   38.8160  -13.7460 C.ar    8  TRP8        0.0012
     23  CZ2       35.2520   40.1550  -14.6190 C.ar    8  TRP8        0.0191
     24  CZ3       37.5960   39.6140  -14.8700 C.ar    8  TRP8        0.0001
     25  CH2       36.4410   40.2740  -15.2970 C.ar    8  TRP8        0.0015
     26  N         38.9590   35.7160   -7.5410 N.3    10  ILE10      -0.1245
     27  CA        38.8470   36.3690   -6.2470 C.3    10  ILE10       0.1561
     28  C         37.8530   35.5370   -5.4370 C.2    10  ILE10       0.2260
     29  O         37.5600   34.4020   -5.8140 O.2    10  ILE10      -0.2867
     30  CB        38.3410   37.8600   -6.3280 C.3    10  ILE10       0.0252
     31  CG1       36.9560   37.9460   -6.9510 C.3    10  ILE10       0.0019
     32  CG2       39.3100   38.6990   -7.1150 C.3    10  ILE10       0.0019
     33  CD1       36.4520   39.3680   -7.0770 C.3    10  ILE10       0.0001
     34  N         34.8480   37.1330   -3.9470 N.3    12  GLY12      -0.1210
     35  CA        33.5380   37.7120   -4.2170 C.3    12  GLY12       0.1956
     36  C         32.3170   36.9430   -3.7340 C.2    12  GLY12       0.2611
     37  O         32.1700   36.6760   -2.5410 O.2    12  GLY12      -0.2717
     38  N         31.4360   36.5820   -4.6600 N.am   13  LEU13      -0.1979
     39  CA        30.2260   35.8540   -4.3010 C.3    13  LEU13       0.1596
     40  C         30.3300   34.3380   -4.5470 C.2    13  LEU13       0.2287
     41  O         29.3790   33.5740   -4.2960 O.2    13  LEU13      -0.2864
     42  CB        29.0300   36.4120   -5.0790 C.3    13  LEU13       0.0297
     43  CG        29.0320   37.8860   -5.4390 C.3    13  LEU13       0.0022
     44  CD1       30.0340   38.1210   -6.5440 C.3    13  LEU13       0.0001
     45  CD2       27.6530   38.2860   -5.8800 C.3    13  LEU13       0.0001
     46  N         36.3680   36.9050  -21.3040 N.3    41  TRP41      -0.1241
     47  CA        35.0620   36.8640  -20.6560 C.3    41  TRP41       0.1605
     48  C         34.0950   37.4960  -21.6550 C.2    41  TRP41       0.2264
     49  O         33.2450   36.8100  -22.2250 O.2    41  TRP41      -0.2867
     50  CB        35.0740   37.6700  -19.3510 C.3    41  TRP41       0.0550
     51  CG        33.7350   37.7710  -18.6810 C.ar   41  TRP41       0.0003
     52  CD1       33.3190   38.7620  -17.8440 C.ar   41  TRP41       0.0946
     53  CD2       32.6290   36.8680  -18.8120 C.ar   41  TRP41       0.0152
     54  NE1       32.0210   38.5380  -17.4500 N.ar   41  TRP41      -0.2442
     55  CE2       31.5750   37.3820  -18.0330 C.ar   41  TRP41       0.0810
     56  CE3       32.4260   35.6770  -19.5130 C.ar   41  TRP41       0.0012
     57  CZ2       30.3380   36.7490  -17.9380 C.ar   41  TRP41       0.0191
     58  CZ3       31.1930   35.0490  -19.4150 C.ar   41  TRP41       0.0001
     59  CH2       30.1660   35.5870  -18.6350 C.ar   41  TRP41       0.0015
     60  N         31.0160   35.3530  -23.0920 N.3    45  LYS45      -0.1245
     61  CA        29.8330   35.7890  -22.3440 C.3    45  LYS45       0.1561
     62  C         28.5190   35.2870  -22.9410 C.2    45  LYS45       0.2260
     63  O         27.6050   34.9060  -22.2070 O.2    45  LYS45      -0.2867
     64  CB        29.7640   37.3230  -22.1990 C.3    45  LYS45       0.0271
     65  CG        28.6590   37.7780  -21.2290 C.3    45  LYS45       0.0035
     66  CD        28.4280   39.2930  -21.1770 C.3    45  LYS45       0.0206
     67  CE        27.2690   39.6450  -20.2100 C.3    45  LYS45       0.1093
     68  NZ        26.7990   41.0810  -20.2100 N.3    45  LYS45      -0.1314
     69  N         23.5890   35.9960  -19.1800 N.3    53  PRO53      -0.2102
     70  CA        25.0440   36.1050  -19.1020 C.3    53  PRO53       0.1504
     71  C         25.5260   36.9590  -17.9520 C.2    53  PRO53       0.2576
     72  O         25.2330   38.1580  -17.8790 O.2    53  PRO53      -0.2718
     73  CB        25.4160   36.7230  -20.4460 C.3    53  PRO53       0.0282
     74  CG        24.3230   36.2750  -21.3460 C.3    53  PRO53       0.0208
     75  CD        23.1130   36.4880  -20.4820 C.3    53  PRO53       0.0893
     76  N         26.2870   36.3420  -17.0630 N.am   54  ASN54      -0.1961
     77  CA        26.8110   37.0660  -15.9300 C.3    54  ASN54       0.1819
     78  C         27.8080   36.1530  -15.2260 C.2    54  ASN54       0.2621
     79  O         27.8470   34.9460  -15.4850 O.2    54  ASN54      -0.2715
     80  CB        25.6610   37.4240  -14.9900 C.3    54  ASN54       0.1195
     81  CG        25.9350   38.6760  -14.1900 C.2    54  ASN54       0.2630
     82  OD1       27.0780   38.9500  -13.8190 O.2    54  ASN54      -0.2716
     83  ND2       24.8830   39.4390  -13.9050 N.am   54  ASN54      -0.0877
     84  N         28.6320   36.7440  -14.3640 N.am   55  LEU55      -0.1964
     85  CA        29.6080   35.9930  -13.5950 C.3    55  LEU55       0.1713
     86  C         29.2140   36.1980  -12.1500 C.2    55  LEU55       0.2458
     87  O         28.8470   37.3070  -11.7580 O.2    55  LEU55      -0.2730
     88  CB        31.0340   36.4950  -13.8570 C.3    55  LEU55       0.0310
     89  CG        31.7770   35.9400  -15.0840 C.3    55  LEU55       0.0022
     90  CD1       33.1380   36.5960  -15.2010 C.3    55  LEU55       0.0001
     91  CD2       31.9400   34.4380  -14.9700 C.3    55  LEU55       0.0001
     92  N         29.2660   35.1250  -11.3390 N.am   56  PRO56      -0.2727
     93  CA        29.6710   33.7620  -11.7180 C.3    56  PRO56       0.1402
     94  C         28.5740   32.9760  -12.4390 C.2    56  PRO56       0.2269
     95  O         27.4220   33.4040  -12.4900 O.2    56  PRO56      -0.2865
     96  CB        30.0170   33.1440  -10.3780 C.3    56  PRO56       0.0296
     97  CG        29.0000   33.7700   -9.4700 C.3    56  PRO56       0.0237
     98  CD        29.0060   35.2100   -9.8880 C.3    56  PRO56       0.0939
     99  N         23.6630   33.7410  -11.4770 N.3    67  GLN67      -0.1231
    100  CA        23.0420   34.4900  -10.3870 C.3    67  GLN67       0.1698
    101  C         23.5710   33.7410   -9.1710 C.2    67  GLN67       0.2592
    102  O         23.0640   32.6720   -8.8160 O.2    67  GLN67      -0.2718
    103  CB        21.5170   34.3890  -10.4200 C.3    67  GLN67       0.0381
    104  CG        20.8560   35.6190  -10.9790 C.3    67  GLN67       0.0905
    105  CD        21.3950   36.8730  -10.3390 C.2    67  GLN67       0.2608
    106  OE1       21.4670   36.9660   -9.1180 O.2    67  GLN67      -0.2717
    107  NE2       21.7830   37.8460  -11.1580 N.am   67  GLN67      -0.0878
    108  N         24.6170   34.2970   -8.5680 N.am   68  SER68      -0.1952
    109  CA        25.2900   33.7150   -7.4140 C.3    68  SER68       0.1924
    110  C         24.4440   32.8570   -6.4800 C.2    68  SER68       0.2314
    111  O         24.7830   31.7040   -6.2160 O.2    68  SER68      -0.2863
    112  CB        25.9380   34.8200   -6.6110 C.3    68  SER68       0.2116
    113  OG        24.9320   35.7150   -6.1910 O.3    68  SER68      -0.2180
    114  N         27.1340   42.6020    1.9990 N.3   104  TYR104     -0.1241
    115  CA        27.0140   43.6790    1.0190 C.3   104  TYR104      0.1605
    116  C         27.4820   44.9890    1.6630 C.2   104  TYR104      0.2264
    117  O         27.9810   45.8870    0.9870 O.2   104  TYR104     -0.2867
    118  CB        25.5640   43.8080    0.5150 C.3   104  TYR104      0.0534
    119  CG        25.1940   42.7630   -0.5190 C.ar  104  TYR104     -0.0201
    120  CD1       26.1200   42.3580   -1.4860 C.ar  104  TYR104     -0.0009
    121  CD2       23.9310   42.1710   -0.5360 C.ar  104  TYR104     -0.0009
    122  CE1       25.8040   41.3770   -2.4440 C.ar  104  TYR104      0.0417
    123  CE2       23.6010   41.1860   -1.4970 C.ar  104  TYR104      0.0417
    124  CZ        24.5480   40.7940   -2.4430 C.ar  104  TYR104      0.1957
    125  OH        24.2670   39.8000   -3.3610 O.3   104  TYR104     -0.2866
    126  N         30.9360   45.3500    0.4110 N.3   107  SER107     -0.1217
    127  CA        30.9590   45.4420   -1.0320 C.3   107  SER107      0.1889
    128  C         30.5580   46.8210   -1.5570 C.2   107  SER107      0.2288
    129  O         31.2020   47.3460   -2.4620 O.2   107  SER107     -0.2866
    130  CB        30.0550   44.3570   -1.6050 C.3   107  SER107      0.2089
    131  OG        30.4340   43.0890   -1.0960 O.3   107  SER107     -0.2183
    132  N         34.0320   49.7700   -2.8160 N.3   111  TYR111     -0.1241
    133  CA        34.3260   50.4000   -4.0900 C.3   111  TYR111      0.1605
    134  C         34.0620   51.8930   -3.9920 C.2   111  TYR111      0.2264
    135  O         34.8930   52.6880   -4.4130 O.2   111  TYR111     -0.2867
    136  CB        33.4460   49.8050   -5.1920 C.3   111  TYR111      0.0534
    137  CG        33.8740   48.4390   -5.6670 C.ar  111  TYR111     -0.0201
    138  CD1       34.9300   48.2960   -6.5570 C.ar  111  TYR111     -0.0009
    139  CD2       33.2200   47.2910   -5.2340 C.ar  111  TYR111     -0.0009
    140  CE1       35.3240   47.0500   -7.0100 C.ar  111  TYR111      0.0417
    141  CE2       33.6080   46.0360   -5.6780 C.ar  111  TYR111      0.0417
    142  CZ        34.6610   45.9250   -6.5710 C.ar  111  TYR111      0.1957
    143  OH        35.0420   44.6910   -7.0450 O.3   111  TYR111     -0.2866
@<TRIPOS>BOND
     1    60    61    1
     2    62    61    1
     3    62    63    2
     4    61    64    1
     5    49    48    2
     6    64    65    1
     7    48    47    1
     8    74    75    1
     9    74    73    1
    10    46    47    1
    11    65    66    1
    12    66    67    1
    13    47    50    1
    14    75    69    1
    15    73    70    1
    16    67    68    1
    17    56    58   ar
    18    56    53   ar
    19    58    59   ar
    20    50    51    1
    21    69    70    1
    22    70    71    1
    23    53    51   ar
    24    53    55   ar
    25    51    52   ar
    26    59    57   ar
    27    55    57   ar
    28    55    54   ar
    29    71    72    2
    30    71    76   am
    31    52    54   ar
    32    76    77    1
    33    77    78    1
    34    77    80    1
    35    79    78    2
    36    25    24   ar
    37    25    23   ar
    38    78    84   am
    39    90    89    1
    40    89    91    1
    41    89    88    1
    42    80    81    1
    43    24    22   ar
    44    23    21   ar
    45    84    85    1
    46    81    83   am
    47    81    82    2
    48    88    85    1
    49    22    19   ar
    50    85    86    1
    51    21    19   ar
    52    21    20   ar
    53    19    17   ar
    54    20    18   ar
    55    95    94    2
    56    94    93    1
    57     1     2    1
    58     4     3    2
    59    86    87    2
    60    86    92   am
    61    17    18   ar
    62    17    16    1
    63     3     2    1
    64     3    12   am
    65     2     5    1
    66    93    92    1
    67    93    96    1
    68    13    12    1
    69    13    16    1
    70    13    14    1
    71    99   100    1
    72    92    98    1
    73   107   105   am
    74   104   103    1
    75   104   105    1
    76    14    15    2
    77   103   100    1
    78   100   101    1
    79    96    97    1
    80   105   106    2
    81     5     6    1
    82    98    97    1
    83     7     6   ar
    84     7     9   ar
    85     6     8   ar
    86     9    11   ar
    87   101   102    2
    88   101   108   am
    89     8    10   ar
    90   108   109    1
    91    11    10   ar
    92    26    27    1
    93   109   112    1
    94   109   110    1
    95    32    30    1
    96    33    31    1
    97   143   142    1
    98   140   142   ar
    99   140   138   ar
   100    31    30    1
   101   112   113    1
   102   142   141   ar
   103   138   137   ar
   104    44    43    1
   105   110   111    2
   106    30    27    1
   107    27    28    1
   108    45    43    1
   109    29    28    2
   110   141   139   ar
   111   137   139   ar
   112   137   136    1
   113    43    42    1
   114   136   133    1
   115    42    39    1
   116    38    39    1
   117    38    36   am
   118    40    39    1
   119    40    41    2
   120   135   134    2
   121    35    34    1
   122    35    36    1
   123   133   134    1
   124   133   132    1
   125    36    37    2
   126   125   124    1
   127   129   128    2
   128   122   124   ar
   129   122   120   ar
   130   124   123   ar
   131   130   131    1
   132   130   127    1
   133   128   127    1
   134   123   121   ar
   135   120   119   ar
   136   127   126    1
   137   121   119   ar
   138   119   118    1
   139   118   115    1
   140   117   116    2
   141   115   116    1
   142   115   114    1
