@<TRIPOS>MOLECULE
tmp/1u8cB02.pdb
 78 73 0 0 0
SMALL
GASTEIGER

@<TRIPOS>ATOM
      1  N         -0.3160   14.9650   77.7950 N.3   554  LEU554     -0.1231
      2  CA        -0.7680   16.3160   77.5170 C.3   554  LEU554      0.1693
      3  C         -1.1700   16.3860   76.0620 C.2   554  LEU554      0.2592
      4  O         -0.7630   15.5540   75.2510 O.2   554  LEU554     -0.2718
      5  CB         0.3420   17.3330   77.8020 C.3   554  LEU554      0.0284
      6  CG         0.6800   17.5900   79.2760 C.3   554  LEU554      0.0019
      7  CD1        1.8510   18.5660   79.3900 C.3   554  LEU554      0.0001
      8  CD2       -0.5540   18.1420   79.9820 C.3   554  LEU554      0.0001
      9  N         -1.9780   17.3850   75.7400 N.am  555  LYS555     -0.1966
     10  CA        -2.4360   17.5630   74.3810 C.3   555  LYS555      0.1728
     11  C         -1.3990   18.3480   73.5960 C.2   555  LYS555      0.2616
     12  O         -0.3540   17.8130   73.2180 O.2   555  LYS555     -0.2715
     13  CB        -3.7660   18.3020   74.3740 C.3   555  LYS555      0.0311
     14  CG        -4.4550   18.2850   73.0300 C.3   555  LYS555      0.0038
     15  CD        -5.6010   19.2570   73.0040 C.3   555  LYS555      0.0206
     16  CE        -5.0880   20.6890   73.0400 C.3   555  LYS555      0.1093
     17  NZ        -4.1740   20.9760   74.1920 N.3   555  LYS555     -0.1314
     18  N         -1.6860   19.6190   73.3520 N.am  556  ASP556     -0.1957
     19  CA        -0.7630   20.4610   72.6060 C.3   556  ASP556      0.1840
     20  C         -0.7160   21.8770   73.1700 C.2   556  ASP556      0.2623
     21  O         -1.2920   22.1540   74.2260 O.2   556  ASP556     -0.2715
     22  CB        -1.1560   20.5020   71.1200 C.3   556  ASP556      0.1450
     23  CG        -0.7690   19.2280   70.3690 C.2   556  ASP556      0.3671
     24  OD1       -1.2020   18.1340   70.7850 O.co2 556  ASP556     -0.2456
     25  OD2       -0.0330   19.3210   69.3580 O.co2 556  ASP556     -0.2456
     26  N         -0.0200   22.7620   72.4570 N.am  557  THR557     -0.1937
     27  CA         0.1260   24.1570   72.8620 C.3   557  THR557      0.2028
     28  C          0.1380   25.0740   71.6370 C.2   557  THR557      0.2643
     29  O         -0.0020   26.2930   71.7570 O.2   557  THR557     -0.2714
     30  CB         1.4360   24.3660   73.6780 C.3   557  THR557      0.1808
     31  OG1        1.4660   25.6960   74.2180 O.3   557  THR557     -0.2208
     32  CG2        2.6630   24.1490   72.7930 C.3   557  THR557      0.0379
     33  N          0.3000   24.4720   70.4600 N.am  558  GLY558     -0.1939
     34  CA         0.3290   25.2310   69.2220 C.3   558  GLY558      0.2014
     35  C         -0.8230   26.2110   69.0560 C.2   558  GLY558      0.2638
     36  O         -1.9700   25.8100   68.8330 O.2   558  GLY558     -0.2714
     37  N         -0.5150   27.5000   69.1700 N.am  559  LYS559     -0.1977
     38  CA        -1.5080   28.5610   69.0220 C.3   559  LYS559      0.1596
     39  C         -1.9990   28.5980   67.5800 C.2   559  LYS559      0.2287
     40  O         -1.3120   28.1170   66.6720 O.2   559  LYS559     -0.2864
     41  CB        -0.8920   29.9180   69.3870 C.3   559  LYS559      0.0298
     42  CG        -0.6540   30.1340   70.8820 C.3   559  LYS559      0.0038
     43  CD         0.1840   31.3870   71.1430 C.3   559  LYS559      0.0206
     44  CE         0.0760   31.8490   72.5960 C.3   559  LYS559      0.1093
     45  NZ        -1.2950   32.3540   72.9300 N.3   559  LYS559     -0.1314
     46  N         -4.6790   27.1450   66.7500 N.3   561  ALA561     -0.1245
     47  CA        -5.2980   25.8340   66.6250 C.3   561  ALA561      0.1562
     48  C         -6.4340   25.7620   67.6260 C.2   561  ALA561      0.2260
     49  O         -6.3850   26.4080   68.6690 O.2   561  ALA561     -0.2867
     50  CB        -4.2870   24.7630   66.9270 C.3   561  ALA561      0.0290
     51  N         -9.3650   23.5490   70.1120 N.3   563  ASN563     -0.1240
     52  CA        -9.5550   22.3980   70.9760 C.3   563  ASN563      0.1653
     53  C        -11.0210   22.0000   70.8690 C.2   563  ASN563      0.2266
     54  O        -11.8610   22.7850   70.4420 O.2   563  ASN563     -0.2867
     55  CB        -9.2230   22.7570   72.4220 C.3   563  ASN563      0.1155
     56  CG        -7.7360   22.8910   72.6610 C.2   563  ASN563      0.2627
     57  OD1       -6.9550   23.0000   71.7100 O.2   563  ASN563     -0.2716
     58  ND2       -7.3510   22.8750   73.9380 N.am  563  ASN563     -0.0877
     59  N        -10.9300   14.3840   74.1940 N.3   575  ARG575     -0.1245
     60  CA       -10.3940   15.7320   74.0370 C.3   575  ARG575      0.1563
     61  C         -9.5550   15.7310   72.7730 C.2   575  ARG575      0.2260
     62  O         -8.7200   14.8510   72.6010 O.2   575  ARG575     -0.2867
     63  CB        -9.4880   16.0930   75.2120 C.3   575  ARG575      0.0307
     64  CG       -10.1220   15.9270   76.5880 C.3   575  ARG575      0.0489
     65  CD       -10.8340   17.1900   77.0730 C.3   575  ARG575      0.2205
     66  NE        -9.9550   18.3610   77.0310 N.pl3 575  ARG575     -0.0865
     67  CZ        -8.7800   18.4530   77.6530 C.cat 575  ARG575      0.5346
     68  NH1       -8.3150   17.4390   78.3840 N.pl3 575  ARG575      0.1354
     69  NH2       -8.0640   19.5670   77.5350 N.pl3 575  ARG575      0.1354
     70  N         -7.5580   18.3040   69.4360 N.3   577  GLN577     -0.1245
     71  CA        -7.1580   19.5820   68.8690 C.3   577  GLN577      0.1566
     72  C         -7.0700   19.5860   67.3540 C.2   577  GLN577      0.2260
     73  O         -6.3890   18.7540   66.7720 O.2   577  GLN577     -0.2867
     74  CB        -5.8020   19.9790   69.4480 C.3   577  GLN577      0.0367
     75  CG        -5.2130   21.2700   68.9050 C.3   577  GLN577      0.0905
     76  CD        -3.8630   21.6090   69.5430 C.2   577  GLN577      0.2608
     77  OE1       -3.7380   21.6640   70.7690 O.2   577  GLN577     -0.2717
     78  NE2       -2.8520   21.8480   68.7090 N.am  577  GLN577     -0.0878
@<TRIPOS>BOND
     1    47    46    1
     2    47    50    1
     3    47    48    1
     4    40    39    2
     5    73    72    2
     6    72    71    1
     7    39    38    1
     8    48    49    2
     9    78    76   am
    10    36    35    2
    11    71    70    1
    12    71    74    1
    13    75    74    1
    14    75    76    1
    15    38    37    1
    16    38    41    1
    17    35    37   am
    18    35    34    1
    19    34    33    1
    20    25    23   ar
    21    41    42    1
    22    76    77    2
    23    51    52    1
    24    23    24   ar
    25    23    22    1
    26    54    53    2
    27    33    28   am
    28    53    52    1
    29    42    43    1
    30    52    55    1
    31    22    19    1
    32    43    44    1
    33    28    29    2
    34    28    27    1
    35    57    56    2
    36    55    56    1
    37    26    27    1
    38    26    20   am
    39    44    45    1
    40    62    61    2
    41    19    20    1
    42    19    18    1
    43    56    58   am
    44    61    60    1
    45    32    30    1
    46    27    30    1
    47    15    14    1
    48    15    16    1
    49    14    13    1
    50    16    17    1
    51    20    21    2
    52    12    11    2
    53    18    11   am
    54    11    10    1
    55    30    31    1
    56    60    59    1
    57    60    63    1
    58    13    10    1
    59    10     9    1
    60    63    64    1
    61     4     3    2
    62     9     3   am
    63     3     2    1
    64    64    65    1
    65    66    65    1
    66    66    67    2
    67     2     1    1
    68     2     5    1
    69    69    67    1
    70    67    68    1
    71     5     6    1
    72     6     7    1
    73     6     8    1
