@<TRIPOS>MOLECULE
tmp/1u8gA00.pdb
 137 129 0 0 0
SMALL
GASTEIGER

@<TRIPOS>ATOM
      1  N        -10.3710   34.9210   33.7010 N.3     8  ARG8       -0.1245
      2  CA       -10.6870   35.1480   32.2900 C.3     8  ARG8        0.1563
      3  C         -9.7910   34.4850   31.2500 C.2     8  ARG8        0.2260
      4  O         -8.5980   34.6670   31.2850 O.2     8  ARG8       -0.2867
      5  CB       -10.6770   36.6240   32.0460 C.3     8  ARG8        0.0307
      6  CG       -11.7310   37.2650   32.8930 C.3     8  ARG8        0.0489
      7  CD       -11.8930   38.7150   32.4600 C.3     8  ARG8        0.2205
      8  NE       -12.8590   39.4780   33.2720 N.pl3   8  ARG8       -0.0865
      9  CZ       -13.6930   40.4340   32.8430 C.cat   8  ARG8        0.5346
     10  NH1      -14.5150   41.0700   33.6830 N.pl3   8  ARG8        0.1354
     11  NH2      -13.7010   40.8110   31.5730 N.pl3   8  ARG8        0.1354
     12  N        -11.1240   37.3330   24.5590 N.3    23  LEU23      -0.1245
     13  CA       -11.7340   36.4370   25.5210 C.3    23  LEU23       0.1561
     14  C        -12.4320   35.3040   24.7780 C.2    23  LEU23       0.2260
     15  O        -13.2310   35.5210   23.8560 O.2    23  LEU23      -0.2867
     16  CB       -12.7360   37.2930   26.3050 C.3    23  LEU23       0.0270
     17  CG       -13.5250   36.7710   27.4830 C.3    23  LEU23       0.0019
     18  CD1      -12.6610   36.5780   28.6810 C.3    23  LEU23       0.0001
     19  CD2      -14.5050   37.8840   27.8020 C.3    23  LEU23       0.0001
     20  N        -15.1920   33.0280   24.4430 N.3    25  ASP25      -0.1239
     21  CA       -16.5260   33.3130   24.9750 C.3    25  ASP25       0.1674
     22  C        -17.5580   32.3150   24.3920 C.2    25  ASP25       0.2266
     23  O        -17.9290   32.4210   23.2430 O.2    25  ASP25      -0.2867
     24  CB       -16.8740   34.7510   24.6500 C.3    25  ASP25       0.1410
     25  CG       -18.1500   35.1820   25.3600 C.2    25  ASP25       0.3668
     26  OD1      -18.9140   34.3030   25.8210 O.co2  25  ASP25      -0.2456
     27  OD2      -18.4270   36.3810   25.5740 O.co2  25  ASP25      -0.2456
     28  N        -20.4130   31.6770   25.3300 N.3    27  GLY27      -0.1210
     29  CA       -21.6500   32.4260   25.2970 C.3    27  GLY27       0.1956
     30  C        -21.9710   33.2920   24.0700 C.2    27  GLY27       0.2612
     31  O        -23.1170   33.7720   23.9500 O.2    27  GLY27      -0.2717
     32  N        -21.0250   33.4200   23.1230 N.am   28  ALA28      -0.1965
     33  CA       -21.0940   34.3810   22.0200 C.3    28  ALA28       0.1728
     34  C        -21.1900   33.5380   20.7920 C.2    28  ALA28       0.2616
     35  O        -20.3720   32.5940   20.6450 O.2    28  ALA28      -0.2715
     36  CB       -19.8220   35.2050   21.9400 C.3    28  ALA28       0.0334
     37  N        -22.2430   33.8060   20.0120 N.am   29  ASP29      -0.1957
     38  CA       -22.4730   33.1340   18.7590 C.3    29  ASP29       0.1840
     39  C        -21.4020   33.6330   17.8020 C.2    29  ASP29       0.2622
     40  O        -20.8400   32.8430   17.0260 O.2    29  ASP29      -0.2715
     41  CB       -23.8820   33.3870   18.1840 C.3    29  ASP29       0.1450
     42  CG       -25.0350   33.0900   19.1700 C.2    29  ASP29       0.3671
     43  OD1      -25.0810   32.0180   19.8720 O.co2  29  ASP29      -0.2456
     44  OD2      -25.8710   34.0220   19.3800 O.co2  29  ASP29      -0.2456
     45  N        -21.1240   34.9380   17.8570 N.am   30  ASP30      -0.1971
     46  CA       -20.1740   35.5450   16.8990 C.3    30  ASP30       0.1709
     47  C        -19.0090   36.2660   17.6470 C.2    30  ASP30       0.2293
     48  O        -19.0080   36.3790   18.8980 O.2    30  ASP30      -0.2864
     49  CB       -20.9110   36.4040   15.8590 C.3    30  ASP30       0.1436
     50  CG       -21.0550   35.7180   14.4890 C.2    30  ASP30       0.3671
     51  OD1      -20.2340   34.8450   14.1130 O.co2  30  ASP30      -0.2456
     52  OD2      -21.9880   35.9920   13.6970 O.co2  30  ASP30      -0.2456
     53  N        -16.5160   39.6320   18.1930 N.3    32  VAL32      -0.1245
     54  CA       -16.7290   41.0320   18.1400 C.3    32  VAL32       0.1561
     55  C        -15.4880   41.6650   18.7150 C.2    32  VAL32       0.2260
     56  O        -14.9960   41.3050   19.7730 O.2    32  VAL32      -0.2867
     57  CB       -17.8310   41.5020   19.0850 C.3    32  VAL32       0.0252
     58  CG1      -18.0990   42.9230   18.7250 C.3    32  VAL32       0.0019
     59  CG2      -19.0980   40.7010   18.9110 C.3    32  VAL32       0.0019
     60  N        -25.0780   46.3150   11.1100 N.3    45  LYS45      -0.1231
     61  CA       -25.6390   45.2070   11.8830 C.3    45  LYS45       0.1693
     62  C        -25.7170   45.6440   13.3550 C.2    45  LYS45       0.2592
     63  O        -25.0540   46.5760   13.8260 O.2    45  LYS45      -0.2718
     64  CB       -24.9300   43.8580   11.5870 C.3    45  LYS45       0.0285
     65  CG       -25.3790   42.6430   12.4200 C.3    45  LYS45       0.0035
     66  CD       -25.5440   41.2970   11.6830 C.3    45  LYS45       0.0206
     67  CE       -25.1810   40.0700   12.5560 C.3    45  LYS45       0.1093
     68  NZ       -25.0110   38.7510   11.8620 N.3    45  LYS45      -0.1314
     69  N        -26.6680   45.0550   14.0740 N.am   46  MET46      -0.1965
     70  CA       -26.7530   45.2820   15.5210 C.3    46  MET46       0.1736
     71  C        -26.7580   43.9270   16.2360 C.2    46  MET46       0.2616
     72  O        -27.3610   42.9960   15.7400 O.2    46  MET46      -0.2715
     73  CB       -27.9600   46.1200   15.9630 C.3    46  MET46       0.0427
     74  CG       -28.4120   47.3920   15.2170 C.3    46  MET46       0.0599
     75  SD       -29.3170   48.4100   16.4810 S.3    46  MET46      -0.1393
     76  CE       -27.9020   49.0050   17.4130 C.3    46  MET46       0.0692
     77  N        -26.0930   43.7930   17.3790 N.am   47  ILE47      -0.1963
     78  CA       -26.0570   42.5070   18.0980 C.3    47  ILE47       0.1727
     79  C        -26.4950   42.8270   19.5120 C.2    47  ILE47       0.2617
     80  O        -26.3730   43.9970   19.9340 O.2    47  ILE47      -0.2715
     81  CB       -24.6470   41.9120   18.2320 C.3    47  ILE47       0.0290
     82  CG1      -23.7260   42.8850   18.9720 C.3    47  ILE47       0.0022
     83  CG2      -24.1110   41.5300   16.8790 C.3    47  ILE47       0.0023
     84  CD1      -22.3130   42.7800   18.5580 C.3    47  ILE47       0.0001
     85  N        -26.9770   41.8070   20.2190 N.am   48  GLY48      -0.1940
     86  CA       -27.3500   42.0470   21.6070 C.3    48  GLY48       0.2014
     87  C        -26.6250   41.1710   22.5980 C.2    48  GLY48       0.2639
     88  O        -26.1360   40.1390   22.2060 O.2    48  GLY48      -0.2714
     89  N        -26.4570   41.5950   23.8340 N.am   49  GLY49      -0.1939
     90  CA       -26.3400   40.6070   24.8710 C.3    49  GLY49       0.2014
     91  C        -27.0920   41.0680   26.0990 C.2    49  GLY49       0.2638
     92  O        -28.1790   41.6260   26.0130 O.2    49  GLY49      -0.2714
     93  N        -26.4400   40.8460   27.2300 N.am   50  ILE50      -0.1977
     94  CA       -26.8670   41.3150   28.5220 C.3    50  ILE50       0.1596
     95  C        -26.7120   42.8320   28.3880 C.2    50  ILE50       0.2287
     96  O        -25.8170   43.3100   27.6810 O.2    50  ILE50      -0.2864
     97  CB       -25.8660   40.8520   29.5850 C.3    50  ILE50       0.0276
     98  CG1      -26.3060   39.4360   29.9760 C.3    50  ILE50       0.0022
     99  CG2      -25.6530   41.8390   30.7470 C.3    50  ILE50       0.0022
    100  CD1      -25.3680   38.7380   30.9120 C.3    50  ILE50       0.0001
    101  N        -17.1780   40.9550   13.7680 N.3    76  LEU76      -0.1245
    102  CA       -17.9610   42.1720   13.8700 C.3    76  LEU76       0.1561
    103  C        -17.0330   43.1210   14.5520 C.2    76  LEU76       0.2260
    104  O        -16.3410   42.6690   15.4290 O.2    76  LEU76      -0.2867
    105  CB       -19.1400   41.9970   14.8130 C.3    76  LEU76       0.0270
    106  CG       -19.8210   40.6990   14.4060 C.3    76  LEU76       0.0019
    107  CD1      -21.1740   40.5740   15.1040 C.3    76  LEU76       0.0001
    108  CD2      -20.0760   40.6370   12.9040 C.3    76  LEU76       0.0001
    109  N        -17.4700   47.3820   21.7790 N.3    80  THR80      -0.1204
    110  CA       -17.5550   46.3220   22.7800 C.3    80  THR80       0.1982
    111  C        -16.4750   46.6130   23.7990 C.2    80  THR80       0.2497
    112  O        -15.4190   47.1480   23.4550 O.2    80  THR80      -0.2729
    113  CB       -17.3200   44.9310   22.1430 C.3    80  THR80       0.1783
    114  OG1      -17.3300   43.9040   23.1510 O.3    80  THR80      -0.2211
    115  CG2      -15.9430   44.8820   21.4640 C.3    80  THR80       0.0376
    116  N        -16.8050   46.3720   25.0660 N.am   81  PRO81      -0.2492
    117  CA       -15.8940   46.6390   26.1870 C.3    81  PRO81       0.1619
    118  C        -14.6800   45.7000   26.1950 C.2    81  PRO81       0.2605
    119  O        -13.6210   46.0030   26.7910 O.2    81  PRO81      -0.2715
    120  CB       -16.8020   46.5190   27.4360 C.3    81  PRO81       0.0570
    121  CG       -18.1080   45.9800   26.9880 C.2    81  PRO81      -0.0077
    122  CD       -18.1520   45.9400   25.4930 C.2    81  PRO81       0.0634
    123  N        -14.8390   44.5770   25.4900 N.am   82  VAL82      -0.1978
    124  CA       -13.8660   43.5000   25.4010 C.3    82  VAL82       0.1596
    125  C        -13.9010   42.8680   24.0060 C.2    82  VAL82       0.2287
    126  O        -14.9680   42.7890   23.4040 O.2    82  VAL82      -0.2864
    127  CB       -14.2250   42.4660   26.4780 C.3    82  VAL82       0.0276
    128  CG1      -13.0770   41.5020   26.7420 C.3    82  VAL82       0.0022
    129  CG2      -14.4090   43.1990   27.8060 C.3    82  VAL82       0.0022
    130  N        -14.0890   39.5890   21.8870 N.3    84  ILE84      -0.1245
    131  CA       -14.6170   38.2860   22.2140 C.3    84  ILE84       0.1561
    132  C        -14.5180   37.4000   21.0140 C.2    84  ILE84       0.2260
    133  O        -14.7330   37.7750   19.9060 O.2    84  ILE84      -0.2867
    134  CB       -16.0490   38.2830   22.8310 C.3    84  ILE84       0.0252
    135  CG1      -17.1500   38.2620   21.8220 C.3    84  ILE84       0.0019
    136  CG2      -16.3700   39.5220   23.6710 C.3    84  ILE84       0.0019
    137  CD1      -18.5020   38.8900   22.4470 C.3    84  ILE84       0.0001
@<TRIPOS>BOND
     1    60    61    1
     2    64    61    1
     3    64    65    1
     4    66    65    1
     5    66    67    1
     6    68    67    1
     7    61    62    1
     8   108   106    1
     9    62    63    2
    10    62    69   am
    11    52    50   ar
    12   101   102    1
    13   102   103    1
    14   102   105    1
    15    69    70    1
    16    51    50   ar
    17   106   105    1
    18   106   107    1
    19    50    49    1
    20   103   104    2
    21    74    73    1
    22    74    75    1
    23    70    73    1
    24    70    71    1
    25    72    71    2
    26    49    46    1
    27    71    77   am
    28    75    76    1
    29    83    81    1
    30    46    47    1
    31    46    45    1
    32    40    39    2
    33    77    78    1
    34    47    48    2
    35    39    45   am
    36    39    38    1
    37    78    81    1
    38    78    79    1
    39    54    53    1
    40    54    55    1
    41    54    57    1
    42    41    38    1
    43    41    42    1
    44    81    82    1
    45    84    82    1
    46    55    56    2
    47    58    57    1
    48    38    37    1
    49    59    57    1
    50    42    44   ar
    51    42    43   ar
    52    79    80    2
    53    79    85   am
    54   133   132    2
    55    37    34   am
    56    85    86    1
    57    35    34    2
    58    34    33    1
    59   132   131    1
    60   115   113    1
    61    86    87    1
    62   109   110    1
    63   135   137    1
    64   135   134    1
    65   130   131    1
    66    36    33    1
    67    33    32    1
    68   113   110    1
    69   113   114    1
    70    88    87    2
    71   131   134    1
    72    87    89   am
    73   110   111    1
    74   134   136    1
    75    32    30   am
    76    23    22    2
    77   126   125    2
    78   112   111    2
    79   111   116   am
    80    89    90    1
    81    15    14    2
    82    31    30    2
    83   125   124    1
    84    30    29    1
    85    22    21    1
    86    20    21    1
    87    12    13    1
    88    24    21    1
    89    24    25    1
    90    14    13    1
    91    90    91    1
    92   116   122    1
    93   116   117    1
    94    29    28    1
    95    25    27   ar
    96    25    26   ar
    97   124   123    1
    98   124   127    1
    99   123   118   am
   100   122   121    2
   101    13    16    1
   102    92    91    2
   103    91    93   am
   104   117   118    1
   105   117   120    1
   106   118   119    2
   107    16    17    1
   108   127   128    1
   109   127   129    1
   110   121   120    1
   111    93    94    1
   112    17    19    1
   113    17    18    1
   114    96    95    2
   115    95    94    1
   116    94    97    1
   117    97    98    1
   118    97    99    1
   119    98   100    1
   120     3     4    2
   121     3     2    1
   122    11     9    1
   123     5     2    1
   124     5     6    1
   125     2     1    1
   126     7     6    1
   127     7     8    1
   128     9     8    2
   129     9    10    1
