@<TRIPOS>MOLECULE
tmp/1u8jB00.pdb
 109 103 0 0 0
SMALL
GASTEIGER

@<TRIPOS>ATOM
      1  N         -1.6300   47.8400   94.0680 N.3    32  PHE32      -0.1227
      2  CA        -1.1740   49.1270   93.5830 C.3    32  PHE32       0.1736
      3  C         -0.4190   49.1330   92.2580 C.2    32  PHE32       0.2596
      4  O          0.5450   48.4390   92.0860 O.2    32  PHE32      -0.2718
      5  CB        -0.3180   49.8100   94.6590 C.3    32  PHE32       0.0547
      6  CG         0.1520   51.1690   94.2540 C.ar   32  PHE32      -0.0202
      7  CD1       -0.7670   52.2100   94.0660 C.ar   32  PHE32      -0.0042
      8  CD2        1.4760   51.3770   93.9350 C.ar   32  PHE32      -0.0042
      9  CE1       -0.3380   53.4450   93.5670 C.ar   32  PHE32      -0.0003
     10  CE2        1.9080   52.6070   93.4300 C.ar   32  PHE32      -0.0003
     11  CZ         1.0090   53.6360   93.2410 C.ar   32  PHE32      -0.0000
     12  N         -0.9020   49.9450   91.3270 N.am   33  GLY33      -0.1957
     13  CA        -0.3150   50.1240   90.0070 C.3    33  GLY33       0.1869
     14  C         -0.1240   48.9220   89.1140 C.2    33  GLY33       0.2309
     15  O          0.5280   49.0370   88.0750 O.2    33  GLY33      -0.2863
     16  N         -4.9310   48.7730   83.9450 N.3    54  TYR54      -0.1241
     17  CA        -4.3260   48.8410   85.2980 C.3    54  TYR54       0.1605
     18  C         -5.3740   48.7010   86.3820 C.2    54  TYR54       0.2264
     19  O         -6.5810   48.8790   86.1310 O.2    54  TYR54      -0.2867
     20  CB        -3.6220   50.1680   85.4930 C.3    54  TYR54       0.0534
     21  CG        -2.5830   50.4090   84.4340 C.ar   54  TYR54      -0.0201
     22  CD1       -2.9430   50.9550   83.1880 C.ar   54  TYR54      -0.0009
     23  CD2       -1.2300   50.0740   84.6630 C.ar   54  TYR54      -0.0009
     24  CE1       -2.0020   51.1680   82.1940 C.ar   54  TYR54       0.0417
     25  CE2       -0.2540   50.2820   83.6540 C.ar   54  TYR54       0.0417
     26  CZ        -0.6570   50.8220   82.4400 C.ar   54  TYR54       0.1957
     27  OH         0.2440   51.0010   81.4520 O.3    54  TYR54      -0.2866
     28  N         -6.1460   50.7400   88.7260 N.3    56  ASP56      -0.1239
     29  CA        -6.9450   51.9490   88.9520 C.3    56  ASP56       0.1674
     30  C         -7.9210   52.1450   87.7630 C.2    56  ASP56       0.2266
     31  O         -8.5540   53.2000   87.6210 O.2    56  ASP56      -0.2867
     32  CB        -6.0700   53.2130   89.1090 C.3    56  ASP56       0.1410
     33  CG        -5.3730   53.6260   87.7920 C.2    56  ASP56       0.3668
     34  OD1       -5.5900   52.9850   86.7560 O.co2  56  ASP56      -0.2456
     35  OD2       -4.6210   54.6200   87.7790 O.co2  56  ASP56      -0.2456
     36  N         -7.3610   52.4930   84.3820 N.3    58  ASP58      -0.1239
     37  CA        -6.9630   53.2920   83.2100 C.3    58  ASP58       0.1674
     38  C         -6.8120   52.1930   82.1340 C.2    58  ASP58       0.2266
     39  O         -6.3550   51.0760   82.4590 O.2    58  ASP58      -0.2867
     40  CB        -5.6160   53.9440   83.5270 C.3    58  ASP58       0.1410
     41  CG        -4.9590   54.6360   82.3540 C.2    58  ASP58       0.3668
     42  OD1       -3.6980   54.6190   82.3010 O.co2  58  ASP58      -0.2456
     43  OD2       -5.6460   55.2560   81.5380 O.co2  58  ASP58      -0.2456
     44  N         -5.6120   51.4280   77.8420 N.3    60  ARG60      -0.1245
     45  CA        -4.9180   52.0020   76.6890 C.3    60  ARG60       0.1563
     46  C         -4.9290   50.9270   75.5860 C.2    60  ARG60       0.2260
     47  O         -4.7790   49.7390   75.8410 O.2    60  ARG60      -0.2867
     48  CB        -3.4820   52.3690   77.0540 C.3    60  ARG60       0.0307
     49  CG        -3.4010   53.3410   78.2120 C.3    60  ARG60       0.0489
     50  CD        -3.9300   54.7130   77.7610 C.3    60  ARG60       0.2205
     51  NE        -4.2880   55.5190   78.9270 N.pl3  60  ARG60      -0.0865
     52  CZ        -3.9660   56.8030   79.0750 C.cat  60  ARG60       0.5346
     53  NH1       -3.2640   57.4500   78.1230 N.pl3  60  ARG60       0.1354
     54  NH2       -4.3410   57.4460   80.1780 N.pl3  60  ARG60       0.1354
     55  N          2.1740   43.1530   84.4330 N.3   100  ARG100     -0.1231
     56  CA         3.0590   44.2980   84.4950 C.3   100  ARG100      0.1694
     57  C          3.0920   44.7370   85.9670 C.2   100  ARG100      0.2591
     58  O          2.0610   45.0110   86.5760 O.2   100  ARG100     -0.2718
     59  CB         2.5610   45.4900   83.6930 C.3   100  ARG100      0.0321
     60  CG         3.6150   46.6400   83.6940 C.3   100  ARG100      0.0489
     61  CD         3.1240   47.8570   82.9240 C.3   100  ARG100      0.2205
     62  NE         4.2140   48.7960   82.7750 N.pl3 100  ARG100     -0.0865
     63  CZ         4.1160   50.0110   82.2100 C.cat 100  ARG100      0.5346
     64  NH1        2.9480   50.4910   81.7440 N.pl3 100  ARG100      0.1354
     65  NH2        5.2230   50.7220   82.0140 N.pl3 100  ARG100      0.1354
     66  N          4.2700   44.7790   86.5440 N.am  101  ARG101     -0.1980
     67  CA         4.4230   45.1980   87.9230 C.3   101  ARG101      0.1597
     68  C          4.0780   46.6580   88.0960 C.2   101  ARG101      0.2287
     69  O          4.2300   47.4630   87.1670 O.2   101  ARG101     -0.2864
     70  CB         5.8970   45.0070   88.3160 C.3   101  ARG101      0.0334
     71  CG         6.1700   43.8540   89.2430 C.3   101  ARG101      0.0492
     72  CD         7.4260   43.0080   88.9890 C.3   101  ARG101      0.2205
     73  NE         8.5600   43.5520   88.2430 N.pl3 101  ARG101     -0.0865
     74  CZ         9.5690   42.7650   87.7970 C.cat 101  ARG101      0.5346
     75  NH1        9.5490   41.4420   88.0460 N.pl3 101  ARG101      0.1354
     76  NH2       10.5740   43.2600   87.0610 N.pl3 101  ARG101      0.1354
     77  N          4.8860   50.2070   90.6730 N.3   103  PRO103     -0.2116
     78  CA         6.1180   50.6250   91.3590 C.3   103  PRO103      0.1372
     79  C          6.3330   49.9470   92.7110 C.2   103  PRO103      0.2244
     80  O          5.3910   49.6150   93.4370 O.2   103  PRO103     -0.2868
     81  CB         5.9250   52.1140   91.5860 C.3   103  PRO103      0.0268
     82  CG         4.9870   52.5430   90.4280 C.3   103  PRO103      0.0207
     83  CD         3.9900   51.3620   90.4550 C.3   103  PRO103      0.0892
     84  N         10.2710   53.0960   90.2600 N.3   113  ARG113     -0.1245
     85  CA         9.4310   52.8260   89.1090 C.3   113  ARG113      0.1563
     86  C         10.1120   51.9120   88.0610 C.2   113  ARG113      0.2260
     87  O          9.4530   51.4130   87.1550 O.2   113  ARG113     -0.2867
     88  CB         8.9040   54.1390   88.4980 C.3   113  ARG113      0.0307
     89  CG         9.9160   55.1200   88.1300 C.3   113  ARG113      0.0489
     90  CD         9.3060   56.4360   87.5890 C.3   113  ARG113      0.2205
     91  NE        10.4090   57.2820   87.1300 N.pl3 113  ARG113     -0.0865
     92  CZ        10.3700   58.1180   86.1010 C.cat 113  ARG113      0.5346
     93  NH1        9.2480   58.2720   85.3690 N.pl3 113  ARG113      0.1354
     94  NH2       11.5010   58.7500   85.7640 N.pl3 113  ARG113      0.1354
     95  N          8.3490   48.7190   86.6160 N.3   116  VAL116     -0.1231
     96  CA         7.2190   48.7230   85.6940 C.3   116  VAL116      0.1692
     97  C          7.6830   48.6420   84.2790 C.2   116  VAL116      0.2592
     98  O          6.8730   48.4740   83.3660 O.2   116  VAL116     -0.2718
     99  CB         6.3680   49.9910   85.7950 C.3   116  VAL116      0.0266
    100  CG1        6.0010   50.2500   87.2640 C.3   116  VAL116      0.0020
    101  CG2        7.0790   51.1750   85.1330 C.3   116  VAL116      0.0020
    102  N          8.9850   48.7680   84.0400 N.am  117  ASN117     -0.1974
    103  CA         9.4180   48.7470   82.6480 C.3   117  ASN117      0.1688
    104  C          9.7070   47.3620   82.0380 C.2   117  ASN117      0.2292
    105  O         10.8470   47.0490   81.6280 O.2   117  ASN117     -0.2864
    106  CB        10.6210   49.6840   82.4750 C.3   117  ASN117      0.1181
    107  CG        10.2650   51.1830   82.7080 C.2   117  ASN117      0.2629
    108  OD1        9.1990   51.6330   82.3230 O.2   117  ASN117     -0.2716
    109  ND2       11.1790   51.9440   83.3090 N.am  117  ASN117     -0.0877
@<TRIPOS>BOND
     1    46    47    2
     2    46    45    1
     3    45    48    1
     4    45    44    1
     5    48    49    1
     6    50    49    1
     7    50    51    1
     8    53    52    1
     9    51    52    2
    10    52    54    1
    11    27    26    1
    12    43    41   ar
    13   105   104    2
    14    64    63    1
    15    65    63    1
    16   104   103    1
    17    38    39    2
    18    38    37    1
    19    24    26   ar
    20    24    22   ar
    21    63    62    2
    22    42    41   ar
    23   108   107    2
    24    41    40    1
    25    26    25   ar
    26   106   103    1
    27   106   107    1
    28   103   102    1
    29   107   109   am
    30    62    61    1
    31    61    60    1
    32    22    21   ar
    33    37    40    1
    34    37    36    1
    35    98    97    2
    36    25    23   ar
    37    59    60    1
    38    59    56    1
    39    16    17    1
    40   102    97   am
    41    97    96    1
    42    55    56    1
    43    21    23   ar
    44    21    20    1
    45    56    57    1
    46   101    99    1
    47    17    20    1
    48    17    18    1
    49    93    92    1
    50    96    99    1
    51    96    95    1
    52    94    92    1
    53    99   100    1
    54    57    66   am
    55    57    58    2
    56    92    91    2
    57    19    18    2
    58    66    67    1
    59    34    33   ar
    60    76    74    1
    61    91    90    1
    62    87    86    2
    63    69    68    2
    64    90    89    1
    65    31    30    2
    66    30    29    1
    67    35    33   ar
    68    33    32    1
    69    74    75    1
    70    74    73    2
    71    67    68    1
    72    67    70    1
    73    86    85    1
    74    15    14    2
    75    89    88    1
    76    73    72    1
    77    70    71    1
    78    88    85    1
    79    28    29    1
    80    29    32    1
    81    72    71    1
    82    85    84    1
    83    14    13    1
    84    13    12    1
    85    82    83    1
    86    82    81    1
    87    83    77    1
    88    77    78    1
    89    12     3   am
    90    78    81    1
    91    78    79    1
    92     4     3    2
    93     3     2    1
    94    79    80    2
    95    11    10   ar
    96    11     9   ar
    97    10     8   ar
    98     9     7   ar
    99     2     1    1
   100     2     5    1
   101     8     6   ar
   102     7     6   ar
   103     6     5    1
