@<TRIPOS>MOLECULE
tmp/1u8mB00.pdb
 109 103 0 0 0
SMALL
GASTEIGER

@<TRIPOS>ATOM
      1  N         -1.8380   47.9090   93.9790 N.3    32  PHE32      -0.1227
      2  CA        -1.3770   49.1970   93.4970 C.3    32  PHE32       0.1736
      3  C         -0.6160   49.2010   92.1760 C.2    32  PHE32       0.2596
      4  O          0.3480   48.5060   92.0090 O.2    32  PHE32      -0.2718
      5  CB        -0.5260   49.8780   94.5780 C.3    32  PHE32       0.0547
      6  CG        -0.0520   51.2360   94.1760 C.ar   32  PHE32      -0.0202
      7  CD1       -0.9690   52.2780   93.9830 C.ar   32  PHE32      -0.0042
      8  CD2        1.2740   51.4410   93.8630 C.ar   32  PHE32      -0.0042
      9  CE1       -0.5350   53.5130   93.4870 C.ar   32  PHE32      -0.0003
     10  CE2        1.7110   52.6710   93.3620 C.ar   32  PHE32      -0.0003
     11  CZ         0.8150   53.7010   93.1680 C.ar   32  PHE32      -0.0000
     12  N         -1.0930   50.0150   91.2430 N.am   33  GLY33      -0.1957
     13  CA        -0.4970   50.1930   89.9260 C.3    33  GLY33       0.1869
     14  C         -0.3040   48.9900   89.0340 C.2    33  GLY33       0.2309
     15  O          0.3540   49.1050   87.9980 O.2    33  GLY33      -0.2863
     16  N         -5.0840   48.8510   83.8390 N.3    54  TYR54      -0.1241
     17  CA        -4.4860   48.9170   85.1950 C.3    54  TYR54       0.1605
     18  C         -5.5400   48.7790   86.2740 C.2    54  TYR54       0.2264
     19  O         -6.7460   48.9590   86.0170 O.2    54  TYR54      -0.2867
     20  CB        -3.7810   50.2430   85.3940 C.3    54  TYR54       0.0534
     21  CG        -2.7360   50.4830   84.3410 C.ar   54  TYR54      -0.0201
     22  CD1       -3.0890   51.0300   83.0940 C.ar   54  TYR54      -0.0009
     23  CD2       -1.3840   50.1450   84.5780 C.ar   54  TYR54      -0.0009
     24  CE1       -2.1420   51.2410   82.1040 C.ar   54  TYR54       0.0417
     25  CE2       -0.4020   50.3520   83.5740 C.ar   54  TYR54       0.0417
     26  CZ        -0.7990   50.8930   82.3570 C.ar   54  TYR54       0.1957
     27  OH         0.1080   51.0710   81.3740 O.3    54  TYR54      -0.2866
     28  N         -6.3210   50.8190   88.6130 N.3    56  ASP56      -0.1239
     29  CA        -7.1200   52.0290   88.8370 C.3    56  ASP56       0.1674
     30  C         -8.0890   52.2280   87.6420 C.2    56  ASP56       0.2266
     31  O         -8.7190   53.2820   87.4970 O.2    56  ASP56      -0.2867
     32  CB        -6.2430   53.2920   88.9980 C.3    56  ASP56       0.1410
     33  CG        -5.5390   53.7040   87.6850 C.2    56  ASP56       0.3668
     34  OD1       -5.7500   53.0630   86.6480 O.co2  56  ASP56      -0.2456
     35  OD2       -4.7850   54.6960   87.6760 O.co2  56  ASP56      -0.2456
     36  N         -7.5100   52.5750   84.2640 N.3    58  ASP58      -0.1239
     37  CA        -7.1040   53.3740   83.0940 C.3    58  ASP58       0.1674
     38  C         -6.9490   52.2750   82.0190 C.2    58  ASP58       0.2266
     39  O         -6.4970   51.1570   82.3460 O.2    58  ASP58      -0.2867
     40  CB        -5.7580   54.0240   83.4190 C.3    58  ASP58       0.1410
     41  CG        -5.0940   54.7140   82.2490 C.2    58  ASP58       0.3668
     42  OD1       -3.8320   54.6950   82.2030 O.co2  58  ASP58      -0.2456
     43  OD2       -5.7750   55.3370   81.4300 O.co2  58  ASP58      -0.2456
     44  N         -5.7280   51.5090   77.7340 N.3    60  ARG60      -0.1245
     45  CA        -5.0270   52.0820   76.5840 C.3    60  ARG60       0.1563
     46  C         -5.0340   51.0080   75.4800 C.2    60  ARG60       0.2260
     47  O         -4.8870   49.8190   75.7370 O.2    60  ARG60      -0.2867
     48  CB        -3.5920   52.4460   76.9570 C.3    60  ARG60       0.0307
     49  CG        -3.5160   53.4180   78.1160 C.3    60  ARG60       0.0489
     50  CD        -4.0400   54.7900   77.6620 C.3    60  ARG60       0.2205
     51  NE        -4.4030   55.5970   78.8270 N.pl3  60  ARG60      -0.0865
     52  CZ        -4.0790   56.8810   78.9770 C.cat  60  ARG60       0.5346
     53  NH1       -3.3710   57.5270   78.0280 N.pl3  60  ARG60       0.1354
     54  NH2       -4.4600   57.5240   80.0780 N.pl3  60  ARG60       0.1354
     55  N          2.0080   43.2180   84.3640 N.3   100  ARG100     -0.1231
     56  CA         2.8950   44.3620   84.4310 C.3   100  ARG100      0.1694
     57  C          2.9210   44.8010   85.9030 C.2   100  ARG100      0.2591
     58  O          1.8880   45.0770   86.5060 O.2   100  ARG100     -0.2718
     59  CB         2.4040   45.5560   83.6260 C.3   100  ARG100      0.0321
     60  CG         3.4590   46.7040   83.6320 C.3   100  ARG100      0.0489
     61  CD         2.9750   47.9220   82.8600 C.3   100  ARG100      0.2205
     62  NE         4.0680   48.8590   82.7180 N.pl3 100  ARG100     -0.0865
     63  CZ         3.9740   50.0740   82.1530 C.cat 100  ARG100      0.5346
     64  NH1        2.8090   50.5570   81.6800 N.pl3 100  ARG100      0.1354
     65  NH2        5.0840   50.7830   81.9630 N.pl3 100  ARG100      0.1354
     66  N          4.0970   44.8410   86.4850 N.am  101  ARG101     -0.1980
     67  CA         4.2430   45.2590   87.8660 C.3   101  ARG101      0.1597
     68  C          3.9000   46.7190   88.0370 C.2   101  ARG101      0.2287
     69  O          4.0570   47.5240   87.1100 O.2   101  ARG101     -0.2864
     70  CB         5.7140   45.0650   88.2670 C.3   101  ARG101      0.0334
     71  CG         5.9810   43.9120   89.1960 C.3   101  ARG101      0.0492
     72  CD         7.2360   43.0640   88.9480 C.3   101  ARG101      0.2205
     73  NE         8.3750   43.6060   88.2070 N.pl3 101  ARG101     -0.0865
     74  CZ         9.3850   42.8180   87.7670 C.cat 101  ARG101      0.5346
     75  NH1        9.3620   41.4940   88.0160 N.pl3 101  ARG101      0.1354
     76  NH2       10.3950   43.3110   87.0360 N.pl3 101  ARG101      0.1354
     77  N          4.6990   50.2670   90.6200 N.3   103  PRO103     -0.2116
     78  CA         5.9290   50.6820   91.3130 C.3   103  PRO103      0.1372
     79  C          6.1350   50.0030   92.6660 C.2   103  PRO103      0.2244
     80  O          5.1880   49.6730   93.3860 O.2   103  PRO103     -0.2868
     81  CB         5.7360   52.1720   91.5390 C.3   103  PRO103      0.0268
     82  CG         4.8060   52.6020   90.3760 C.3   103  PRO103      0.0207
     83  CD         3.8070   51.4230   90.3970 C.3   103  PRO103      0.0892
     84  N         10.0920   53.1470   90.2360 N.3   113  ARG113     -0.1245
     85  CA         9.2570   52.8780   89.0810 C.3   113  ARG113      0.1563
     86  C          9.9420   51.9630   88.0370 C.2   113  ARG113      0.2260
     87  O          9.2870   51.4660   87.1260 O.2   113  ARG113     -0.2867
     88  CB         8.7350   54.1920   88.4670 C.3   113  ARG113      0.0307
     89  CG         9.7510   55.1720   88.1040 C.3   113  ARG113      0.0489
     90  CD         9.1470   56.4890   87.5610 C.3   113  ARG113      0.2205
     91  NE        10.2530   57.3330   87.1080 N.pl3 113  ARG113     -0.0865
     92  CZ        10.2210   58.1690   86.0790 C.cat 113  ARG113      0.5346
     93  NH1        9.1030   58.3250   85.3420 N.pl3 113  ARG113      0.1354
     94  NH2       11.3550   58.8000   85.7480 N.pl3 113  ARG113      0.1354
     95  N          8.1810   48.7730   86.5810 N.3   116  VAL116     -0.1231
     96  CA         7.0570   48.7790   85.6520 C.3   116  VAL116      0.1692
     97  C          7.5280   48.6980   84.2400 C.2   116  VAL116      0.2592
     98  O          6.7230   48.5320   83.3220 O.2   116  VAL116     -0.2718
     99  CB         6.2080   50.0490   85.7490 C.3   116  VAL116      0.0266
    100  CG1        5.8320   50.3080   87.2170 C.3   116  VAL116      0.0020
    101  CG2        6.9240   51.2320   85.0930 C.3   116  VAL116      0.0020
    102  N          8.8320   48.8230   84.0080 N.am  117  ASN117     -0.1974
    103  CA         9.2720   48.8010   82.6190 C.3   117  ASN117      0.1688
    104  C          9.5620   47.4150   82.0100 C.2   117  ASN117      0.2292
    105  O         10.7030   47.1010   81.6060 O.2   117  ASN117     -0.2864
    106  CB        10.4770   49.7360   82.4520 C.3   117  ASN117      0.1181
    107  CG        10.1220   51.2360   82.6840 C.2   117  ASN117      0.2629
    108  OD1        9.0590   51.6870   82.2940 O.2   117  ASN117     -0.2716
    109  ND2       11.0340   51.9950   83.2900 N.am  117  ASN117     -0.0877
@<TRIPOS>BOND
     1    46    47    2
     2    46    45    1
     3    45    48    1
     4    45    44    1
     5    48    49    1
     6    50    49    1
     7    50    51    1
     8    53    52    1
     9    51    52    2
    10    52    54    1
    11    27    26    1
    12    43    41   ar
    13   105   104    2
    14    64    63    1
    15    65    63    1
    16   104   103    1
    17    38    39    2
    18    38    37    1
    19    24    26   ar
    20    24    22   ar
    21    63    62    2
    22    42    41   ar
    23    41    40    1
    24   108   107    2
    25    26    25   ar
    26   106   103    1
    27   106   107    1
    28   103   102    1
    29   107   109   am
    30    62    61    1
    31    61    60    1
    32    22    21   ar
    33    37    40    1
    34    37    36    1
    35    98    97    2
    36    25    23   ar
    37    59    60    1
    38    59    56    1
    39    16    17    1
    40   102    97   am
    41    97    96    1
    42    21    23   ar
    43    21    20    1
    44    55    56    1
    45    56    57    1
    46   101    99    1
    47    17    20    1
    48    17    18    1
    49    93    92    1
    50    96    99    1
    51    96    95    1
    52    94    92    1
    53    99   100    1
    54    57    66   am
    55    57    58    2
    56    19    18    2
    57    92    91    2
    58    66    67    1
    59    34    33   ar
    60    76    74    1
    61    91    90    1
    62    69    68    2
    63    87    86    2
    64    31    30    2
    65    90    89    1
    66    30    29    1
    67    35    33   ar
    68    33    32    1
    69    74    75    1
    70    74    73    2
    71    67    68    1
    72    67    70    1
    73    15    14    2
    74    86    85    1
    75    89    88    1
    76    73    72    1
    77    70    71    1
    78    88    85    1
    79    28    29    1
    80    29    32    1
    81    72    71    1
    82    14    13    1
    83    85    84    1
    84    13    12    1
    85    82    83    1
    86    82    81    1
    87    83    77    1
    88    77    78    1
    89    12     3   am
    90    78    81    1
    91    78    79    1
    92     4     3    2
    93     3     2    1
    94    79    80    2
    95    11    10   ar
    96    11     9   ar
    97    10     8   ar
    98     9     7   ar
    99     2     1    1
   100     2     5    1
   101     8     6   ar
   102     7     6   ar
   103     6     5    1
