@<TRIPOS>MOLECULE
tmp/1u8oB00.pdb
 98 91 0 0 0
SMALL
GASTEIGER

@<TRIPOS>ATOM
      1  N         -0.8550   49.8900   91.3730 N.3    33  GLY33      -0.1225
      2  CA        -0.2630   50.0750   90.0560 C.3    33  GLY33       0.1811
      3  C         -0.0720   48.8780   89.1560 C.2    33  GLY33       0.2280
      4  O          0.5830   48.9990   88.1190 O.2    33  GLY33      -0.2866
      5  N         -4.8630   48.7760   83.9690 N.3    54  TYR54      -0.1241
      6  CA        -4.2620   48.8340   85.3250 C.3    54  TYR54       0.1605
      7  C         -5.3140   48.6900   86.4040 C.2    54  TYR54       0.2264
      8  O         -6.5200   48.8730   86.1510 O.2    54  TYR54      -0.2867
      9  CB        -3.5540   50.1580   85.5320 C.3    54  TYR54       0.0534
     10  CG        -2.5120   50.4030   84.4770 C.ar   54  TYR54      -0.0201
     11  CD1       -2.8660   50.9590   83.2340 C.ar   54  TYR54      -0.0009
     12  CD2       -1.1600   50.0620   84.7100 C.ar   54  TYR54      -0.0009
     13  CE1       -1.9220   51.1750   82.2440 C.ar   54  TYR54       0.0417
     14  CE2       -0.1800   50.2740   83.7050 C.ar   54  TYR54       0.0417
     15  CZ        -0.5780   50.8240   82.4920 C.ar   54  TYR54       0.1957
     16  OH         0.3270   51.0070   81.5090 O.3    54  TYR54      -0.2866
     17  N         -6.0880   50.7160   88.7600 N.3    56  ASP56      -0.1239
     18  CA        -6.8850   51.9260   88.9910 C.3    56  ASP56       0.1674
     19  C         -7.8560   52.1320   87.7990 C.2    56  ASP56       0.2266
     20  O         -8.4850   53.1890   87.6630 O.2    56  ASP56      -0.2867
     21  CB        -6.0070   53.1860   89.1590 C.3    56  ASP56       0.1410
     22  CG        -5.3050   53.6050   87.8470 C.2    56  ASP56       0.3668
     23  OD1       -5.5190   52.9710   86.8070 O.co2  56  ASP56      -0.2456
     24  OD2       -4.5500   54.5970   87.8430 O.co2  56  ASP56      -0.2456
     25  N         -7.2850   52.5010   84.4230 N.3    58  ASP58      -0.1239
     26  CA        -6.8790   53.3060   83.2570 C.3    58  ASP58       0.1674
     27  C         -6.7270   52.2140   82.1760 C.2    58  ASP58       0.2266
     28  O         -6.2750   51.0930   82.4940 O.2    58  ASP58      -0.2867
     29  CB        -5.5320   53.9520   83.5830 C.3    58  ASP58       0.1410
     30  CG        -4.8690   54.6500   82.4160 C.2    58  ASP58       0.3668
     31  OD1       -3.6080   54.6300   82.3670 O.co2  58  ASP58      -0.2456
     32  OD2       -5.5520   55.2780   81.6020 O.co2  58  ASP58      -0.2456
     33  N         -5.5150   51.4740   77.8820 N.3    60  ARG60      -0.1245
     34  CA        -4.8160   52.0520   76.7360 C.3    60  ARG60       0.1563
     35  C         -4.8270   50.9850   75.6250 C.2    60  ARG60       0.2260
     36  O         -4.6810   49.7950   75.8730 O.2    60  ARG60      -0.2867
     37  CB        -3.3800   52.4130   77.1080 C.3    60  ARG60       0.0307
     38  CG        -3.3000   53.3780   78.2720 C.3    60  ARG60       0.0489
     39  CD        -3.8240   54.7540   77.8290 C.3    60  ARG60       0.2205
     40  NE        -4.1840   55.5530   78.9980 N.pl3  60  ARG60      -0.0865
     41  CZ        -3.8590   56.8350   79.1560 C.cat  60  ARG60       0.5346
     42  NH1       -3.1520   57.4870   78.2110 N.pl3  60  ARG60       0.1354
     43  NH2       -4.2360   57.4720   80.2610 N.pl3  60  ARG60       0.1354
     44  N          2.2250   43.1340   84.4450 N.3   100  ARG100     -0.1231
     45  CA         3.1140   44.2750   84.5180 C.3   100  ARG100      0.1694
     46  C          3.1430   44.7060   85.9930 C.2   100  ARG100      0.2591
     47  O          2.1110   44.9780   86.5990 O.2   100  ARG100     -0.2718
     48  CB         2.6210   45.4750   83.7220 C.3   100  ARG100      0.0321
     49  CG         3.6790   46.6230   83.7330 C.3   100  ARG100      0.0489
     50  CD         3.1930   47.8460   82.9700 C.3   100  ARG100      0.2205
     51  NE         4.2860   48.7820   82.8310 N.pl3 100  ARG100     -0.0865
     52  CZ         4.1930   50.0020   82.2730 C.cat 100  ARG100      0.5346
     53  NH1        3.0280   50.4880   81.8060 N.pl3 100  ARG100      0.1354
     54  NH2        5.3040   50.7100   82.0860 N.pl3 100  ARG100      0.1354
     55  N          4.3200   44.7400   86.5740 N.am  101  ARG101     -0.1980
     56  CA         4.4680   45.1500   87.9560 C.3   101  ARG101      0.1597
     57  C          4.1270   46.6100   88.1370 C.2   101  ARG101      0.2287
     58  O          4.2840   47.4200   87.2140 O.2   101  ARG101     -0.2864
     59  CB         5.9400   44.9520   88.3530 C.3   101  ARG101      0.0334
     60  CG         6.2080   43.7920   89.2740 C.3   101  ARG101      0.0492
     61  CD         7.4630   42.9450   89.0180 C.3   101  ARG101      0.2205
     62  NE         8.6000   43.4910   88.2790 N.pl3 101  ARG101     -0.0865
     63  CZ         9.6080   42.7040   87.8310 C.cat 101  ARG101      0.5346
     64  NH1        9.5840   41.3790   88.0720 N.pl3 101  ARG101      0.1354
     65  NH2       10.6160   43.2010   87.1020 N.pl3 101  ARG101      0.1354
     66  N          4.9360   50.1400   90.7410 N.3   103  PRO103     -0.2116
     67  CA         6.1660   50.5500   91.4330 C.3   103  PRO103      0.1372
     68  C          6.3750   49.8630   92.7810 C.2   103  PRO103      0.2244
     69  O          5.4300   49.5290   93.5020 O.2   103  PRO103     -0.2868
     70  CB         5.9760   52.0390   91.6690 C.3   103  PRO103      0.0268
     71  CG         5.0440   52.4770   90.5100 C.3   103  PRO103      0.0207
     72  CD         4.0440   51.2990   90.5270 C.3   103  PRO103      0.0892
     73  N         10.3290   53.0170   90.3640 N.3   113  ARG113     -0.1245
     74  CA         9.4930   52.7560   89.2090 C.3   113  ARG113      0.1563
     75  C         10.1760   51.8480   88.1580 C.2   113  ARG113      0.2260
     76  O          9.5180   51.3560   87.2460 O.2   113  ARG113     -0.2867
     77  CB         8.9710   54.0750   88.6040 C.3   113  ARG113      0.0307
     78  CG         9.9870   55.0560   88.2460 C.3   113  ARG113      0.0489
     79  CD         9.3830   56.3770   87.7120 C.3   113  ARG113      0.2205
     80  NE        10.4900   57.2220   87.2620 N.pl3 113  ARG113     -0.0865
     81  CZ        10.4570   58.0650   86.2390 C.cat 113  ARG113      0.5346
     82  NH1        9.3370   58.2270   85.5040 N.pl3 113  ARG113      0.1354
     83  NH2       11.5900   58.6970   85.9100 N.pl3 113  ARG113      0.1354
     84  N          8.4080   48.6690   86.6860 N.3   116  VAL116     -0.1231
     85  CA         7.2810   48.6820   85.7590 C.3   116  VAL116      0.1692
     86  C          7.7500   48.6080   84.3460 C.2   116  VAL116      0.2592
     87  O          6.9420   48.4490   83.4290 O.2   116  VAL116     -0.2718
     88  CB         6.4340   49.9520   85.8660 C.3   116  VAL116      0.0266
     89  CG1        6.0620   50.2020   87.3360 C.3   116  VAL116      0.0020
     90  CG2        7.1500   51.1370   85.2150 C.3   116  VAL116      0.0020
     91  N          9.0530   48.7330   84.1120 N.am  117  ASN117     -0.1974
     92  CA         9.4900   48.7200   82.7220 C.3   117  ASN117      0.1688
     93  C          9.7780   47.3380   82.1040 C.2   117  ASN117      0.2292
     94  O         10.9200   47.0240   81.6960 O.2   117  ASN117     -0.2864
     95  CB        10.6970   49.6540   82.5590 C.3   117  ASN117      0.1181
     96  CG        10.3440   51.1530   82.8000 C.2   117  ASN117      0.2629
     97  OD1        9.2800   51.6090   82.4150 O.2   117  ASN117     -0.2716
     98  ND2       11.2580   51.9080   83.4100 N.am  117  ASN117     -0.0877
@<TRIPOS>BOND
     1    35    36    2
     2    35    34    1
     3    34    37    1
     4    34    33    1
     5    37    38    1
     6    39    38    1
     7    39    40    1
     8    42    41    1
     9    40    41    2
    10    41    43    1
    11    16    15    1
    12    32    30   ar
    13    94    93    2
    14    53    52    1
    15    54    52    1
    16    93    92    1
    17    27    28    2
    18    27    26    1
    19    13    15   ar
    20    13    11   ar
    21    52    51    2
    22    31    30   ar
    23    97    96    2
    24    30    29    1
    25    15    14   ar
    26    95    92    1
    27    95    96    1
    28    92    91    1
    29    96    98   am
    30    51    50    1
    31    50    49    1
    32    11    10   ar
    33    26    29    1
    34    26    25    1
    35    87    86    2
    36    14    12   ar
    37    48    49    1
    38    48    45    1
    39     5     6    1
    40    91    86   am
    41    86    85    1
    42    44    45    1
    43    10    12   ar
    44    10     9    1
    45    45    46    1
    46    90    88    1
    47     6     9    1
    48     6     7    1
    49    82    81    1
    50    85    88    1
    51    85    84    1
    52    88    89    1
    53    83    81    1
    54    46    55   am
    55    46    47    2
    56     8     7    2
    57    81    80    2
    58    55    56    1
    59    23    22   ar
    60    65    63    1
    61    58    57    2
    62    76    75    2
    63    80    79    1
    64    20    19    2
    65    79    78    1
    66    19    18    1
    67    63    64    1
    68    63    62    2
    69    24    22   ar
    70    22    21    1
    71    56    57    1
    72    56    59    1
    73     4     3    2
    74    75    74    1
    75    78    77    1
    76    62    61    1
    77    59    60    1
    78    77    74    1
    79    17    18    1
    80    18    21    1
    81    61    60    1
    82     3     2    1
    83    74    73    1
    84     2     1    1
    85    71    72    1
    86    71    70    1
    87    72    66    1
    88    66    67    1
    89    67    70    1
    90    67    68    1
    91    68    69    2
