@<TRIPOS>MOLECULE
tmp/1u8vD00.pdb
 97 91 0 0 0
SMALL
GASTEIGER

@<TRIPOS>ATOM
      1  N         70.2840   -5.8160   69.7260 N.3   318  ASN318     -0.1240
      2  CA        69.8210   -6.4500   68.5160 C.3   318  ASN318      0.1653
      3  C         70.7330   -7.6420   68.1770 C.2   318  ASN318      0.2266
      4  O         70.2660   -8.6080   67.5880 O.2   318  ASN318     -0.2867
      5  CB        69.8550   -5.5290   67.2780 C.3   318  ASN318      0.1155
      6  CG        68.7990   -4.4390   67.3080 C.2   318  ASN318      0.2627
      7  OD1       67.8430   -4.5220   68.0810 O.2   318  ASN318     -0.2716
      8  ND2       68.9440   -3.4120   66.4670 N.am  318  ASN318     -0.0877
      9  N         73.8310   -7.0320   66.4620 N.3   320  ALA320     -0.1245
     10  CA        74.5450   -6.6520   65.2580 C.3   320  ALA320      0.1562
     11  C         75.8000   -5.8020   65.5340 C.2   320  ALA320      0.2260
     12  O         76.3420   -5.2640   64.5630 O.2   320  ALA320     -0.2867
     13  CB        73.6410   -5.8790   64.3020 C.3   320  ALA320      0.0290
     14  N         79.0930   -5.8540   63.2870 N.3   323  ALA323     -0.1245
     15  CA        79.0870   -5.5460   61.8580 C.3   323  ALA323      0.1562
     16  C         79.9480   -4.3330   61.5110 C.2   323  ALA323      0.2260
     17  O         79.8930   -3.3040   62.1870 O.2   323  ALA323     -0.2867
     18  CB        77.6530   -5.3110   61.4030 C.3   323  ALA323      0.0290
     19  N         79.7250   -2.1330   59.0310 N.3   325  HIS325     -0.1226
     20  CA        78.9680   -0.9250   58.6570 C.3   325  HIS325      0.1752
     21  C         78.3180   -0.2550   59.8630 C.2   325  HIS325      0.2595
     22  O         78.2270    0.9950   59.8810 O.2   325  HIS325     -0.2718
     23  CB        77.9270   -1.2530   57.5760 C.3   325  HIS325      0.0759
     24  CG        76.6790   -1.8760   58.1040 C.ar  325  HIS325      0.0818
     25  ND1       75.5470   -1.1770   58.4550 N.ar  325  HIS325     -0.2268
     26  CD2       76.4070   -3.1850   58.3740 C.ar  325  HIS325      0.1154
     27  CE1       74.6170   -2.0060   58.9100 C.ar  325  HIS325      0.1986
     28  NE2       75.1190   -3.2530   58.8610 N.ar  325  HIS325     -0.2212
     29  N         77.8810   -0.9790   60.8820 N.am  326  VAL326     -0.1980
     30  CA        77.3880   -0.4130   62.1420 C.3   326  VAL326      0.1595
     31  C         78.4970    0.3610   62.8490 C.2   326  VAL326      0.2287
     32  O         78.3150    1.4990   63.3030 O.2   326  VAL326     -0.2864
     33  CB        76.7610   -1.4780   63.0590 C.3   326  VAL326      0.0276
     34  CG1       76.4960   -0.9650   64.4730 C.3   326  VAL326      0.0022
     35  CG2       75.4510   -2.0040   62.4420 C.3   326  VAL326      0.0022
     36  N         68.7350    4.0540   61.2340 N.3   386  ASP386     -0.1225
     37  CA        69.3280    2.9310   60.4860 C.3   386  ASP386      0.1805
     38  C         69.7710    1.8420   61.4710 C.2   386  ASP386      0.2598
     39  O         69.3870    0.6660   61.4210 O.2   386  ASP386     -0.2718
     40  CB        70.4790    3.4170   59.6040 C.3   386  ASP386      0.1424
     41  CG        71.1610    2.3520   58.7420 C.2   386  ASP386      0.3668
     42  OD1       70.8170    1.1350   58.8040 O.co2 386  ASP386     -0.2456
     43  OD2       72.0690    2.7490   57.9660 O.co2 386  ASP386     -0.2456
     44  N         70.5860    2.2260   62.4470 N.am  387  ILE387     -0.1966
     45  CA        71.1260    1.2250   63.3800 C.3   387  ILE387      0.1727
     46  C         70.0240    0.6000   64.2130 C.2   387  ILE387      0.2616
     47  O         70.0910   -0.5960   64.5390 O.2   387  ILE387     -0.2715
     48  CB        72.2390    1.8570   64.2340 C.3   387  ILE387      0.0290
     49  CG1       73.4680    2.2700   63.4000 C.3   387  ILE387      0.0022
     50  CG2       72.6690    0.9780   65.4000 C.3   387  ILE387      0.0023
     51  CD1       74.3880    3.2020   64.1600 C.3   387  ILE387      0.0001
     52  N         68.9700    1.3280   64.6070 N.am  388  ALA388     -0.1963
     53  CA        67.9700    0.8160   65.5200 C.3   388  ALA388      0.1728
     54  C         67.0960   -0.2860   64.8990 C.2   388  ALA388      0.2617
     55  O         66.7760   -1.2610   65.6190 O.2   388  ALA388     -0.2715
     56  CB        67.0560    1.9510   65.9820 C.3   388  ALA388      0.0334
     57  N         66.7350   -0.1230   63.6510 N.am  389  GLY389     -0.1940
     58  CA        65.7720   -0.9950   62.9840 C.3   389  GLY389      0.2014
     59  C         64.3460   -0.4820   63.0050 C.2   389  GLY389      0.2639
     60  O         64.0010    0.5080   63.6660 O.2   389  GLY389     -0.2714
     61  N         63.4320   -1.1390   62.2610 N.am  390  GLY390     -0.1939
     62  CA        62.0850   -0.5660   62.1850 C.3   390  GLY390      0.2014
     63  C         61.2270   -0.6450   63.4220 C.2   390  GLY390      0.2638
     64  O         60.2350    0.0870   63.5350 O.2   390  GLY390     -0.2714
     65  N         61.5160   -1.5070   64.4010 N.am  391  LEU391     -0.1977
     66  CA        60.6840   -1.6480   65.5940 C.3   391  LEU391      0.1596
     67  C         60.5600   -0.3370   66.3970 C.2   391  LEU391      0.2287
     68  O         59.5710   -0.1560   67.1080 O.2   391  LEU391     -0.2864
     69  CB        61.2160   -2.7590   66.5190 C.3   391  LEU391      0.0297
     70  CG        60.3220   -3.1600   67.7030 C.3   391  LEU391      0.0022
     71  CD1       58.9130   -3.5030   67.2460 C.3   391  LEU391      0.0001
     72  CD2       61.0040   -4.3040   68.4510 C.3   391  LEU391      0.0001
     73  N         59.6270    2.3710   65.4830 N.3   393  VAL393     -0.1231
     74  CA        58.4190    3.0780   65.0910 C.3   393  VAL393      0.1692
     75  C         57.2140    2.1660   64.8860 C.2   393  VAL393      0.2592
     76  O         56.1690    2.7220   64.5400 O.2   393  VAL393     -0.2718
     77  CB        58.5880    3.9110   63.7970 C.3   393  VAL393      0.0266
     78  CG1       59.6140    5.0270   64.0650 C.3   393  VAL393      0.0020
     79  CG2       58.9720    3.0590   62.6020 C.3   393  VAL393      0.0020
     80  N         57.3010    0.8500   65.0830 N.am  394  THR394     -0.1953
     81  CA        56.1210   -0.0130   64.9480 C.3   394  THR394      0.1897
     82  C         55.7920   -0.7800   66.2230 C.2   394  THR394      0.2313
     83  O         54.9680   -1.7080   66.1800 O.2   394  THR394     -0.2863
     84  CB        56.3080   -1.0780   63.8500 C.3   394  THR394      0.1794
     85  OG1       57.2920   -2.0170   64.3240 O.3   394  THR394     -0.2208
     86  CG2       56.8060   -0.4650   62.5430 C.3   394  THR394      0.0378
     87  N         65.3200   -3.7980   75.8890 N.3   433  ARG433     -0.1245
     88  CA        65.4590   -3.4710   74.4570 C.3   433  ARG433      0.1563
     89  C         64.3810   -2.4730   74.0640 C.2   433  ARG433      0.2260
     90  O         64.6230   -1.5050   73.3250 O.2   433  ARG433     -0.2867
     91  CB        65.4190   -4.7420   73.5950 C.3   433  ARG433      0.0307
     92  CG        65.5740   -4.4640   72.1070 C.3   433  ARG433      0.0489
     93  CD        65.6570   -5.7610   71.3000 C.3   433  ARG433      0.2205
     94  NE        65.7580   -5.5380   69.8770 N.pl3 433  ARG433     -0.0865
     95  CZ        64.8960   -5.9510   68.9450 C.cat 433  ARG433      0.5346
     96  NH1       63.8300   -6.6480   69.3590 N.pl3 433  ARG433      0.1354
     97  NH2       65.0640   -5.6860   67.6570 N.pl3 433  ARG433      0.1354
@<TRIPOS>BOND
     1    23    24    1
     2    23    20    1
     3    43    41   ar
     4    24    26   ar
     5    24    25   ar
     6    26    28   ar
     7    25    27   ar
     8    20    19    1
     9    20    21    1
    10    41    42   ar
    11    41    40    1
    12    28    27   ar
    13    40    37    1
    14    21    22    2
    15    21    29   am
    16    37    36    1
    17    37    38    1
    18    29    30    1
    19    18    15    1
    20    39    38    2
    21    38    44   am
    22    16    15    1
    23    16    17    2
    24    15    14    1
    25    30    31    1
    26    30    33    1
    27    62    61    1
    28    62    63    1
    29    61    59   am
    30    35    33    1
    31    44    45    1
    32    86    84    1
    33    79    77    1
    34    31    32    2
    35    58    59    1
    36    58    57    1
    37    59    60    2
    38    33    34    1
    39    45    46    1
    40    45    48    1
    41    49    51    1
    42    49    48    1
    43    63    64    2
    44    63    65   am
    45    57    54   am
    46    77    78    1
    47    77    74    1
    48    84    85    1
    49    84    81    1
    50    46    47    2
    51    46    52   am
    52    48    50    1
    53    13    10    1
    54    65    66    1
    55    76    75    2
    56    12    11    2
    57    52    53    1
    58    75    80   am
    59    75    74    1
    60    54    53    1
    61    54    55    2
    62    81    80    1
    63    81    82    1
    64    74    73    1
    65    10    11    1
    66    10     9    1
    67    53    56    1
    68    66    67    1
    69    66    69    1
    70    83    82    2
    71    67    68    2
    72     8     6   am
    73    69    70    1
    74    71    70    1
    75     5     6    1
    76     5     2    1
    77     6     7    2
    78     4     3    2
    79    97    95    1
    80    70    72    1
    81     3     2    1
    82     2     1    1
    83    95    96    1
    84    95    94    2
    85    94    93    1
    86    93    92    1
    87    92    91    1
    88    90    89    2
    89    91    88    1
    90    89    88    1
    91    88    87    1
