@<TRIPOS>MOLECULE
tmp/1u8xA00.pdb
 134 126 0 0 0
SMALL
GASTEIGER

@<TRIPOS>ATOM
      1  N         25.9490   82.3900   28.2010 N.3    15  PHE15      -0.1241
      2  CA        24.9780   83.3650   28.6890 C.3    15  PHE15       0.1605
      3  C         24.0170   82.7620   29.7310 C.2    15  PHE15       0.2264
      4  O         23.5010   83.4760   30.5810 O.2    15  PHE15      -0.2867
      5  CB        24.1530   83.9240   27.5140 C.3    15  PHE15       0.0534
      6  CG        24.5140   85.3520   27.1120 C.ar   15  PHE15      -0.0203
      7  CD1       25.8380   85.8000   27.1090 C.ar   15  PHE15      -0.0042
      8  CD2       23.5180   86.2420   26.7290 C.ar   15  PHE15      -0.0042
      9  CE1       26.1520   87.1310   26.7310 C.ar   15  PHE15      -0.0003
     10  CE2       23.8270   87.5580   26.3570 C.ar   15  PHE15      -0.0003
     11  CZ        25.1540   87.9970   26.3640 C.ar   15  PHE15      -0.0000
     12  N         23.2960   79.7590   19.2710 N.3    84  ARG84      -0.1245
     13  CA        24.3260   80.3160   18.4090 C.3    84  ARG84       0.1563
     14  C         24.7460   79.1970   17.4960 C.2    84  ARG84       0.2260
     15  O         25.6540   78.4630   17.8220 O.2    84  ARG84      -0.2867
     16  CB        25.5230   80.7590   19.2400 C.3    84  ARG84       0.0307
     17  CG        26.2660   81.9140   18.6540 C.3    84  ARG84       0.0489
     18  CD        27.6640   82.1340   19.2300 C.3    84  ARG84       0.2205
     19  NE        27.6880   83.2490   20.1730 N.pl3  84  ARG84      -0.0865
     20  CZ        27.4960   84.5280   19.8530 C.cat  84  ARG84       0.5346
     21  NH1       27.2640   84.8870   18.5910 N.pl3  84  ARG84       0.1354
     22  NH2       27.5230   85.4540   20.8060 N.pl3  84  ARG84       0.1354
     23  N         31.5970   82.3060   14.4160 N.3    90  ARG90      -0.1245
     24  CA        31.5950   83.7570   14.6320 C.3    90  ARG90       0.1563
     25  C         32.9490   84.3580   14.2340 C.2    90  ARG90       0.2260
     26  O         33.0160   85.4140   13.5960 O.2    90  ARG90      -0.2867
     27  CB        31.2840   84.1060   16.0880 C.3    90  ARG90       0.0307
     28  CG        31.2120   85.6070   16.3100 C.3    90  ARG90       0.0489
     29  CD        30.9850   86.0370   17.7350 C.3    90  ARG90       0.2205
     30  NE        31.0290   87.4880   17.8670 N.pl3  90  ARG90      -0.0865
     31  CZ        30.5700   88.1550   18.9220 C.cat  90  ARG90       0.5346
     32  NH1       30.0320   87.5070   19.9490 N.pl3  90  ARG90       0.1354
     33  NH2       30.6470   89.4800   18.9500 N.pl3  90  ARG90       0.1354
     34  N         31.7560   91.6700   11.6740 N.3   105  GLN105     -0.1231
     35  CA        30.9700   91.8890   12.8790 C.3   105  GLN105      0.1698
     36  C         29.8840   90.8170   12.9760 C.2   105  GLN105      0.2592
     37  O         29.3840   90.3460   11.9590 O.2   105  GLN105     -0.2718
     38  CB        30.3640   93.3070   12.8640 C.3   105  GLN105      0.0381
     39  CG        30.0990   93.9070   14.2600 C.3   105  GLN105      0.0905
     40  CD        28.7570   93.4740   14.8650 C.2   105  GLN105      0.2608
     41  OE1       27.7610   93.3600   14.1540 O.2   105  GLN105     -0.2717
     42  NE2       28.7330   93.2410   16.1650 N.am  105  GLN105     -0.0878
     43  N         29.5220   90.4560   14.2050 N.am  106  GLU106     -0.1979
     44  CA        28.5830   89.3660   14.4980 C.3   106  GLU106      0.1602
     45  C         27.2380   89.5110   13.7970 C.2   106  GLU106      0.2287
     46  O         26.7050   88.5340   13.2810 O.2   106  GLU106     -0.2864
     47  CB        28.3340   89.2440   16.0260 C.3   106  GLU106      0.0415
     48  CG        27.1470   88.3680   16.4400 C.3   106  GLU106      0.1163
     49  CD        26.7330   88.5420   17.9070 C.2   106  GLU106      0.3649
     50  OE1       26.6590   89.6880   18.3940 O.co2 106  GLU106     -0.2457
     51  OE2       26.4630   87.5210   18.5790 O.co2 106  GLU106     -0.2457
     52  N         20.5400   85.7060   17.5860 N.3   141  ASN141     -0.1240
     53  CA        20.8610   86.6850   16.5580 C.3   141  ASN141      0.1653
     54  C         21.1510   85.9890   15.2400 C.2   141  ASN141      0.2266
     55  O         21.3160   84.7560   15.2140 O.2   141  ASN141     -0.2867
     56  CB        22.0610   87.5420   17.0000 C.3   141  ASN141      0.1155
     57  CG        21.6440   88.8450   17.6620 C.2   141  ASN141      0.2627
     58  OD1       20.6090   89.4190   17.3370 O.2   141  ASN141     -0.2716
     59  ND2       22.4580   89.3230   18.5850 N.am  141  ASN141     -0.0877
     60  N         16.0500   92.2570   21.4010 N.3   163  CYS163     -0.1221
     61  CA        17.3910   92.7910   21.3600 C.3   163  CYS163      0.1808
     62  C         17.6270   93.7020   22.5450 C.2   163  CYS163      0.2601
     63  O         16.7790   94.5170   22.8820 O.2   163  CYS163     -0.2717
     64  CB        17.5840   93.5840   20.0680 C.3   163  CYS163      0.0970
     65  SG        19.1110   94.5400   20.0410 S.3   163  CYS163     -0.0800
     66  N         18.7980   93.5800   23.1550 N.am  164  ASP164     -0.1973
     67  CA        19.0910   94.2960   24.3850 C.3   164  ASP164      0.1709
     68  C         19.8570   95.5840   24.1680 C.2   164  ASP164      0.2293
     69  O         20.0870   96.3050   25.1300 O.2   164  ASP164     -0.2864
     70  CB        19.8310   93.3950   25.3810 C.3   164  ASP164      0.1436
     71  CG        21.2060   92.9670   24.9090 C.2   164  ASP164      0.3671
     72  OD1       21.6520   93.3960   23.8160 O.co2 164  ASP164     -0.2456
     73  OD2       21.9030   92.1700   25.5940 O.co2 164  ASP164     -0.2456
     74  N         19.0820   96.8450   15.3300 N.3   191  HIS191     -0.1241
     75  CA        20.4790   97.2900   15.2130 C.3   191  HIS191      0.1621
     76  C         20.6150   98.3720   14.1470 C.2   191  HIS191      0.2264
     77  O         21.5930   98.3870   13.4150 O.2   191  HIS191     -0.2867
     78  CB        21.4530   96.1250   14.8900 C.3   191  HIS191      0.0745
     79  CG        21.6270   95.1510   16.0150 C.ar  191  HIS191      0.0817
     80  ND1       22.6670   94.2520   16.0650 N.ar  191  HIS191     -0.2268
     81  CD2       20.8940   94.9350   17.1340 C.ar  191  HIS191      0.1154
     82  CE1       22.5630   93.5190   17.1580 C.ar  191  HIS191      0.1986
     83  NE2       21.5050   93.9200   17.8350 N.ar  191  HIS191     -0.2212
     84  N         24.7770  100.7740   16.6790 N.3   246  TYR246     -0.1241
     85  CA        25.0990   99.9020   15.5470 C.3   246  TYR246      0.1605
     86  C         25.1850  100.6540   14.2060 C.2   246  TYR246      0.2264
     87  O         25.8250  100.1710   13.2700 O.2   246  TYR246     -0.2867
     88  CB        24.1340   98.7110   15.4670 C.3   246  TYR246      0.0534
     89  CG        24.5200   97.5870   16.4100 C.ar  246  TYR246     -0.0201
     90  CD1       23.7630   97.2860   17.5230 C.ar  246  TYR246     -0.0009
     91  CD2       25.6550   96.8400   16.1780 C.ar  246  TYR246     -0.0009
     92  CE1       24.1460   96.2590   18.3940 C.ar  246  TYR246      0.0417
     93  CE2       26.0590   95.8310   17.0460 C.ar  246  TYR246      0.0417
     94  CZ        25.2990   95.5380   18.1450 C.ar  246  TYR246      0.1957
     95  OH        25.7230   94.5200   18.9780 O.3   246  TYR246     -0.2866
     96  N         36.5900   89.9500   17.8510 N.3   265  ARG265     -0.1245
     97  CA        35.7130   89.9570   19.0290 C.3   265  ARG265      0.1563
     98  C         35.3330   88.5460   19.5300 C.2   265  ARG265      0.2260
     99  O         35.2330   88.3470   20.7310 O.2   265  ARG265     -0.2867
    100  CB        34.4530   90.7960   18.7410 C.3   265  ARG265      0.0307
    101  CG        33.4580   90.9380   19.9140 C.3   265  ARG265      0.0489
    102  CD        34.0180   91.6180   21.1640 C.3   265  ARG265      0.2205
    103  NE        33.1090   91.5010   22.3100 N.pl3 265  ARG265     -0.0865
    104  CZ        33.4230   91.8260   23.5700 C.cat 265  ARG265      0.5346
    105  NH1       34.6350   92.2800   23.8880 N.pl3 265  ARG265      0.1354
    106  NH2       32.5160   91.6820   24.5290 N.pl3 265  ARG265      0.1354
    107  N         35.9570   87.2610   23.2590 N.3   269  VAL269     -0.1245
    108  CA        34.8560   86.6900   24.0350 C.3   269  VAL269      0.1561
    109  C         35.2360   85.2940   24.5520 C.2   269  VAL269      0.2260
    110  O         34.8270   84.8970   25.6410 O.2   269  VAL269     -0.2867
    111  CB        33.5420   86.6340   23.1980 C.3   269  VAL269      0.0252
    112  CG1       32.4670   85.7990   23.8940 C.3   269  VAL269      0.0019
    113  CG2       33.0160   88.0480   22.9310 C.3   269  VAL269      0.0019
    114  N         35.0300   85.5670   28.4660 N.3   272  ARG272     -0.1245
    115  CA        34.0560   84.5850   28.9630 C.3   272  ARG272      0.1563
    116  C         34.4210   83.1430   28.5510 C.2   272  ARG272      0.2260
    117  O         35.3480   82.5760   29.1050 O.2   272  ARG272     -0.2867
    118  CB        32.6350   84.9600   28.5380 C.3   272  ARG272      0.0307
    119  CG        32.0680   86.1650   29.2960 C.3   272  ARG272      0.0489
    120  CD        31.1810   87.0760   28.4500 C.3   272  ARG272      0.2205
    121  NE        30.1920   86.3180   27.6720 N.pl3 272  ARG272     -0.0865
    122  CZ        29.7030   86.6730   26.4710 C.cat 272  ARG272      0.5346
    123  NH1       30.0840   87.7990   25.8570 N.pl3 272  ARG272      0.1354
    124  NH2       28.8130   85.8870   25.8720 N.pl3 272  ARG272      0.1354
    125  N         21.5410   92.8440   32.7390 N.3   298  HIS298     -0.1241
    126  CA        21.1940   93.3300   31.4120 C.3   298  HIS298      0.1621
    127  C         20.0940   92.4710   30.8130 C.2   298  HIS298      0.2264
    128  O         19.2820   92.9550   30.0330 O.2   298  HIS298     -0.2867
    129  CB        22.4140   93.2820   30.5000 C.3   298  HIS298      0.0745
    130  CG        22.3130   94.1690   29.3000 C.ar  298  HIS298      0.0817
    131  ND1       23.2380   94.1390   28.2770 N.ar  298  HIS298     -0.2268
    132  CD2       21.4100   95.1200   28.9630 C.ar  298  HIS298      0.1154
    133  CE1       22.9070   95.0310   27.3590 C.ar  298  HIS298      0.1986
    134  NE2       21.8000   95.6370   27.7490 N.ar  298  HIS298     -0.2212
@<TRIPOS>BOND
     1    34    35    1
     2    37    36    2
     3    38    35    1
     4    38    39    1
     5    35    36    1
     6    36    43   am
     7    87    86    2
     8    46    45    2
     9    77    76    2
    10    26    25    2
    11    45    44    1
    12    76    75    1
    13    41    40    2
    14    43    44    1
    15    86    85    1
    16    25    24    1
    17    39    40    1
    18    23    24    1
    19    44    47    1
    20    24    27    1
    21    40    42   am
    22    78    75    1
    23    78    79    1
    24    75    74    1
    25    55    54    2
    26    54    53    1
    27    88    85    1
    28    88    89    1
    29    85    84    1
    30    79    80   ar
    31    79    81   ar
    32    47    48    1
    33    80    82   ar
    34    27    28    1
    35    91    89   ar
    36    91    93   ar
    37    28    29    1
    38    89    90   ar
    39    48    49    1
    40    53    56    1
    41    53    52    1
    42    56    57    1
    43    93    94   ar
    44    81    83   ar
    45    82    83   ar
    46    58    57    2
    47    14    15    2
    48    14    13    1
    49    90    92   ar
    50    57    59   am
    51    29    30    1
    52    96    97    1
    53    30    31    2
    54    49    50   ar
    55    49    51   ar
    56    94    92   ar
    57    94    95    1
    58    13    16    1
    59    13    12    1
    60    21    20    1
    61    17    18    1
    62    17    16    1
    63   100    97    1
    64   100   101    1
    65    31    33    1
    66    31    32    1
    67    97    98    1
    68    18    19    1
    69    98    99    2
    70    20    19    2
    71    20    22    1
    72   101   102    1
    73    65    64    1
    74    64    61    1
    75   102   103    1
    76    61    60    1
    77    61    62    1
    78   103   104    2
    79    62    63    2
    80    62    66   am
    81   113   111    1
    82    66    67    1
    83   111   112    1
    84   111   108    1
    85   107   108    1
    86   104   105    1
    87   104   106    1
    88    72    71   ar
    89   108   109    1
    90    68    67    1
    91    68    69    2
    92    67    70    1
    93   109   110    2
    94    71    70    1
    95    71    73   ar
    96   123   122    1
    97   124   122    1
    98    10    11   ar
    99    10     8   ar
   100    11     9   ar
   101   122   121    2
   102     8     6   ar
   103     9     7   ar
   104     7     6   ar
   105     6     5    1
   106   133   134   ar
   107   133   131   ar
   108     5     2    1
   109   121   120    1
   110   134   132   ar
   111     1     2    1
   112   131   130   ar
   113   120   119    1
   114   114   115    1
   115   118   115    1
   116   118   119    1
   117   116   115    1
   118   116   117    2
   119     2     3    1
   120   132   130   ar
   121   130   129    1
   122     3     4    2
   123   128   127    2
   124   129   126    1
   125   127   126    1
   126   126   125    1
