@<TRIPOS>MOLECULE
tmp/1u92B00.pdb
 109 103 0 0 0
SMALL
GASTEIGER

@<TRIPOS>ATOM
      1  N         -1.4970   47.7600   94.1140 N.3    32  PHE32      -0.1227
      2  CA        -1.0440   49.0490   93.6310 C.3    32  PHE32       0.1736
      3  C         -0.2930   49.0600   92.3050 C.2    32  PHE32       0.2596
      4  O          0.6730   48.3670   92.1280 O.2    32  PHE32      -0.2718
      5  CB        -0.1860   49.7310   94.7080 C.3    32  PHE32       0.0547
      6  CG         0.2800   51.0910   94.3040 C.ar   32  PHE32      -0.0202
      7  CD1       -0.6410   52.1310   94.1210 C.ar   32  PHE32      -0.0042
      8  CD2        1.6040   51.3020   93.9820 C.ar   32  PHE32      -0.0042
      9  CE1       -0.2160   53.3690   93.6230 C.ar   32  PHE32      -0.0003
     10  CE2        2.0320   52.5340   93.4790 C.ar   32  PHE32      -0.0003
     11  CZ         1.1310   53.5620   93.2950 C.ar   32  PHE32      -0.0000
     12  N         -0.7790   49.8720   91.3770 N.am   33  GLY33      -0.1957
     13  CA        -0.1940   50.0560   90.0550 C.3    33  GLY33       0.1869
     14  C         -0.0030   48.8560   89.1600 C.2    33  GLY33       0.2309
     15  O          0.6460   48.9740   88.1190 O.2    33  GLY33      -0.2863
     16  N         -4.8230   48.7110   84.0010 N.3    54  TYR54      -0.1241
     17  CA        -4.2150   48.7770   85.3530 C.3    54  TYR54       0.1605
     18  C         -5.2590   48.6330   86.4390 C.2    54  TYR54       0.2264
     19  O         -6.4680   48.8090   86.1910 O.2    54  TYR54      -0.2867
     20  CB        -3.5120   50.1050   85.5490 C.3    54  TYR54       0.0534
     21  CG        -2.4770   50.3500   84.4880 C.ar   54  TYR54      -0.0201
     22  CD1       -2.8400   50.8990   83.2450 C.ar   54  TYR54      -0.0009
     23  CD2       -1.1220   50.0170   84.7130 C.ar   54  TYR54      -0.0009
     24  CE1       -1.9020   51.1150   82.2490 C.ar   54  TYR54       0.0417
     25  CE2       -0.1490   50.2290   83.7030 C.ar   54  TYR54       0.0417
     26  CZ        -0.5560   50.7710   82.4900 C.ar   54  TYR54       0.1957
     27  OH         0.3430   50.9540   81.5010 O.3    54  TYR54      -0.2866
     28  N         -6.0300   50.6640   88.7890 N.3    56  ASP56      -0.1239
     29  CA        -6.8310   51.8720   89.0210 C.3    56  ASP56       0.1674
     30  C         -7.8100   52.0690   87.8340 C.2    56  ASP56       0.2266
     31  O         -8.4450   53.1230   87.6960 O.2    56  ASP56      -0.2867
     32  CB        -5.9570   53.1370   89.1770 C.3    56  ASP56       0.1410
     33  CG        -5.2640   53.5540   87.8600 C.2    56  ASP56       0.3668
     34  OD1       -5.4820   52.9150   86.8240 O.co2  56  ASP56      -0.2456
     35  OD2       -4.5140   54.5500   87.8490 O.co2  56  ASP56      -0.2456
     36  N         -7.2590   52.4260   84.4520 N.3    58  ASP58      -0.1239
     37  CA        -6.8640   53.2290   83.2810 C.3    58  ASP58       0.1674
     38  C         -6.7130   52.1330   82.2030 C.2    58  ASP58       0.2266
     39  O         -6.2540   51.0160   82.5240 O.2    58  ASP58      -0.2867
     40  CB        -5.5170   53.8820   83.5970 C.3    58  ASP58       0.1410
     41  CG        -4.8650   54.5780   82.4230 C.2    58  ASP58       0.3668
     42  OD1       -3.6040   54.5630   82.3680 O.co2  58  ASP58      -0.2456
     43  OD2       -5.5540   55.1990   81.6110 O.co2  58  ASP58      -0.2456
     44  N         -5.5220   51.3800   77.9060 N.3    60  ARG60      -0.1245
     45  CA        -4.8320   51.9570   76.7540 C.3    60  ARG60       0.1563
     46  C         -4.8440   50.8860   75.6470 C.2    60  ARG60       0.2260
     47  O         -4.6920   49.6970   75.9000 O.2    60  ARG60      -0.2867
     48  CB        -3.3960   52.3250   77.1160 C.3    60  ARG60       0.0307
     49  CG        -3.3140   53.2950   78.2750 C.3    60  ARG60       0.0489
     50  CD        -3.8460   54.6670   77.8290 C.3    60  ARG60       0.2205
     51  NE        -4.2030   55.4700   78.9980 N.pl3  60  ARG60      -0.0865
     52  CZ        -3.8820   56.7550   79.1490 C.cat  60  ARG60       0.5346
     53  NH1       -3.1840   57.4050   78.1970 N.pl3  60  ARG60       0.1354
     54  NH2       -4.2560   57.3940   80.2530 N.pl3  60  ARG60       0.1354
     55  N          2.2930   43.1010   84.4590 N.3   100  ARG100     -0.1231
     56  CA         3.1760   44.2480   84.5230 C.3   100  ARG100      0.1694
     57  C          3.2120   44.6850   85.9950 C.2   100  ARG100      0.2591
     58  O          2.1820   44.9550   86.6060 O.2   100  ARG100     -0.2718
     59  CB         2.6740   45.4420   83.7240 C.3   100  ARG100      0.0321
     60  CG         3.7260   46.5940   83.7250 C.3   100  ARG100      0.0489
     61  CD         3.2310   47.8120   82.9600 C.3   100  ARG100      0.2205
     62  NE         4.3190   48.7530   82.8100 N.pl3 100  ARG100     -0.0865
     63  CZ         4.2180   49.9690   82.2480 C.cat 100  ARG100      0.5346
     64  NH1        3.0480   50.4480   81.7850 N.pl3 100  ARG100      0.1354
     65  NH2        5.3240   50.6820   82.0510 N.pl3 100  ARG100      0.1354
     66  N          4.3910   44.7260   86.5690 N.am  101  ARG101     -0.1980
     67  CA         4.5470   45.1420   87.9500 C.3   101  ARG101      0.1597
     68  C          4.2000   46.6010   88.1260 C.2   101  ARG101      0.2287
     69  O          4.3480   47.4090   87.1990 O.2   101  ARG101     -0.2864
     70  CB         6.0220   44.9530   88.3380 C.3   101  ARG101      0.0334
     71  CG         6.3000   43.7990   89.2620 C.3   101  ARG101      0.0492
     72  CD         7.5560   42.9550   89.0030 C.3   101  ARG101      0.2205
     73  NE         8.6870   43.5030   88.2560 N.pl3 101  ARG101     -0.0865
     74  CZ         9.6970   42.7190   87.8050 C.cat 101  ARG101      0.5346
     75  NH1        9.6800   41.3950   88.0520 N.pl3 101  ARG101      0.1354
     76  NH2       10.6990   43.2170   87.0670 N.pl3 101  ARG101      0.1354
     77  N          5.0080   50.1470   90.7090 N.3   103  PRO103     -0.2116
     78  CA         6.2400   50.5640   91.3940 C.3   103  PRO103      0.1372
     79  C          6.4600   49.8840   92.7440 C.2   103  PRO103      0.2244
     80  O          5.5200   49.5480   93.4710 O.2   103  PRO103     -0.2868
     81  CB         6.0450   52.0530   91.6250 C.3   103  PRO103      0.0268
     82  CG         5.1040   52.4830   90.4700 C.3   103  PRO103      0.0207
     83  CD         4.1080   51.3010   90.4970 C.3   103  PRO103      0.0892
     84  N         10.3860   53.0450   90.2910 N.3   113  ARG113     -0.1245
     85  CA         9.5450   52.7760   89.1410 C.3   113  ARG113      0.1563
     86  C         10.2250   51.8670   88.0900 C.2   113  ARG113      0.2260
     87  O          9.5650   51.3680   87.1840 O.2   113  ARG113     -0.2867
     88  CB         9.0130   54.0900   88.5340 C.3   113  ARG113      0.0307
     89  CG        10.0230   55.0740   88.1660 C.3   113  ARG113      0.0489
     90  CD         9.4090   56.3900   87.6300 C.3   113  ARG113      0.2205
     91  NE        10.5100   57.2380   87.1710 N.pl3 113  ARG113     -0.0865
     92  CZ        10.4680   58.0770   86.1440 C.cat 113  ARG113      0.5346
     93  NH1        9.3430   58.2310   85.4150 N.pl3 113  ARG113      0.1354
     94  NH2       11.5960   58.7120   85.8060 N.pl3 113  ARG113      0.1354
     95  N          8.4640   48.6730   86.6420 N.3   116  VAL116     -0.1231
     96  CA         7.3320   48.6780   85.7210 C.3   116  VAL116      0.1692
     97  C          7.7920   48.6010   84.3060 C.2   116  VAL116      0.2592
     98  O          6.9800   48.4330   83.3940 O.2   116  VAL116     -0.2718
     99  CB         6.4790   49.9450   85.8280 C.3   116  VAL116      0.0266
    100  CG1        6.1150   50.1990   87.2990 C.3   116  VAL116      0.0020
    101  CG2        7.1860   51.1300   85.1670 C.3   116  VAL116      0.0020
    102  N          9.0940   48.7310   84.0640 N.am  117  ASN117     -0.1974
    103  CA         9.5230   48.7130   82.6710 C.3   117  ASN117      0.1688
    104  C          9.8130   47.3300   82.0570 C.2   117  ASN117      0.2292
    105  O         10.9540   47.0200   81.6440 O.2   117  ASN117     -0.2864
    106  CB        10.7250   49.6530   82.4970 C.3   117  ASN117      0.1181
    107  CG        10.3660   51.1500   82.7350 C.2   117  ASN117      0.2629
    108  OD1        9.2990   51.6000   82.3530 O.2   117  ASN117     -0.2716
    109  ND2       11.2810   51.9110   83.3360 N.am  117  ASN117     -0.0877
@<TRIPOS>BOND
     1    46    47    2
     2    46    45    1
     3    45    48    1
     4    45    44    1
     5    48    49    1
     6    50    49    1
     7    50    51    1
     8    53    52    1
     9    51    52    2
    10    52    54    1
    11    27    26    1
    12    43    41   ar
    13   105   104    2
    14    64    63    1
    15    65    63    1
    16   104   103    1
    17    38    39    2
    18    38    37    1
    19    63    62    2
    20    24    26   ar
    21    24    22   ar
    22   108   107    2
    23    42    41   ar
    24    41    40    1
    25    26    25   ar
    26   106   103    1
    27   106   107    1
    28   103   102    1
    29   107   109   am
    30    62    61    1
    31    61    60    1
    32    22    21   ar
    33    37    40    1
    34    37    36    1
    35    98    97    2
    36    25    23   ar
    37    59    60    1
    38    59    56    1
    39    16    17    1
    40   102    97   am
    41    97    96    1
    42    55    56    1
    43    21    23   ar
    44    21    20    1
    45    56    57    1
    46   101    99    1
    47    17    20    1
    48    17    18    1
    49    93    92    1
    50    96    99    1
    51    96    95    1
    52    94    92    1
    53    99   100    1
    54    57    66   am
    55    57    58    2
    56    92    91    2
    57    19    18    2
    58    66    67    1
    59    34    33   ar
    60    76    74    1
    61    91    90    1
    62    87    86    2
    63    69    68    2
    64    90    89    1
    65    31    30    2
    66    74    75    1
    67    74    73    2
    68    30    29    1
    69    35    33   ar
    70    33    32    1
    71    67    68    1
    72    67    70    1
    73    86    85    1
    74    15    14    2
    75    89    88    1
    76    73    72    1
    77    70    71    1
    78    88    85    1
    79    28    29    1
    80    72    71    1
    81    29    32    1
    82    85    84    1
    83    14    13    1
    84    13    12    1
    85    82    83    1
    86    82    81    1
    87    83    77    1
    88    77    78    1
    89    12     3   am
    90    78    81    1
    91    78    79    1
    92     4     3    2
    93     3     2    1
    94    79    80    2
    95    11    10   ar
    96    11     9   ar
    97    10     8   ar
    98     9     7   ar
    99     2     1    1
   100     2     5    1
   101     8     6   ar
   102     7     6   ar
   103     6     5    1
