@<TRIPOS>MOLECULE
tmp/1u95B00.pdb
 109 103 0 0 0
SMALL
GASTEIGER

@<TRIPOS>ATOM
      1  N         -1.6840   47.7030   94.0700 N.3    32  PHE32      -0.1227
      2  CA        -1.2250   48.9910   93.5890 C.3    32  PHE32       0.1736
      3  C         -0.4650   48.9990   92.2670 C.2    32  PHE32       0.2596
      4  O          0.4990   48.3040   92.0970 O.2    32  PHE32      -0.2718
      5  CB        -0.3720   49.6710   94.6700 C.3    32  PHE32       0.0547
      6  CG         0.1000   51.0300   94.2690 C.ar   32  PHE32      -0.0202
      7  CD1       -0.8170   52.0720   94.0800 C.ar   32  PHE32      -0.0042
      8  CD2        1.4260   51.2370   93.9550 C.ar   32  PHE32      -0.0042
      9  CE1       -0.3850   53.3080   93.5850 C.ar   32  PHE32      -0.0003
     10  CE2        1.8610   52.4680   93.4550 C.ar   32  PHE32      -0.0003
     11  CZ         0.9640   53.4980   93.2640 C.ar   32  PHE32      -0.0000
     12  N         -0.9440   49.8130   91.3360 N.am   33  GLY33      -0.1957
     13  CA        -0.3510   49.9940   90.0180 C.3    33  GLY33       0.1869
     14  C         -0.1580   48.7930   89.1240 C.2    33  GLY33       0.2309
     15  O          0.4980   48.9100   88.0870 O.2    33  GLY33      -0.2863
     16  N         -4.9460   48.6590   83.9360 N.3    54  TYR54      -0.1241
     17  CA        -4.3460   48.7240   85.2910 C.3    54  TYR54       0.1605
     18  C         -5.3980   48.5830   86.3710 C.2    54  TYR54       0.2264
     19  O         -6.6040   48.7620   86.1160 O.2    54  TYR54      -0.2867
     20  CB        -3.6410   50.0500   85.4920 C.3    54  TYR54       0.0534
     21  CG        -2.5980   50.2920   84.4370 C.ar   54  TYR54      -0.0201
     22  CD1       -2.9530   50.8410   83.1910 C.ar   54  TYR54      -0.0009
     23  CD2       -1.2460   49.9550   84.6710 C.ar   54  TYR54      -0.0009
     24  CE1       -2.0080   51.0550   82.2010 C.ar   54  TYR54       0.0417
     25  CE2       -0.2660   50.1640   83.6660 C.ar   54  TYR54       0.0417
     26  CZ        -0.6640   50.7070   82.4510 C.ar   54  TYR54       0.1957
     27  OH         0.2410   50.8870   81.4670 O.3    54  TYR54      -0.2866
     28  N         -6.1770   50.6180   88.7160 N.3    56  ASP56      -0.1239
     29  CA        -6.9760   51.8270   88.9420 C.3    56  ASP56       0.1674
     30  C         -7.9470   52.0270   87.7490 C.2    56  ASP56       0.2266
     31  O         -8.5780   53.0820   87.6070 O.2    56  ASP56      -0.2867
     32  CB        -6.1000   53.0900   89.1040 C.3    56  ASP56       0.1410
     33  CG        -5.3980   53.5050   87.7910 C.2    56  ASP56       0.3668
     34  OD1       -5.6110   52.8660   86.7530 O.co2  56  ASP56      -0.2456
     35  OD2       -4.6450   54.4980   87.7830 O.co2  56  ASP56      -0.2456
     36  N         -7.3740   52.3810   84.3710 N.3    58  ASP58      -0.1239
     37  CA        -6.9700   53.1820   83.2020 C.3    58  ASP58       0.1674
     38  C         -6.8160   52.0850   82.1250 C.2    58  ASP58       0.2266
     39  O         -6.3620   50.9670   82.4490 O.2    58  ASP58      -0.2867
     40  CB        -5.6240   53.8320   83.5260 C.3    58  ASP58       0.1410
     41  CG        -4.9620   54.5250   82.3560 C.2    58  ASP58       0.3668
     42  OD1       -3.7010   54.5070   82.3080 O.co2  58  ASP58      -0.2456
     43  OD2       -5.6450   55.1480   81.5390 O.co2  58  ASP58      -0.2456
     44  N         -5.6010   51.3270   77.8360 N.3    60  ARG60      -0.1245
     45  CA        -4.9020   51.9020   76.6870 C.3    60  ARG60       0.1563
     46  C         -4.9100   50.8300   75.5810 C.2    60  ARG60       0.2260
     47  O         -4.7620   49.6410   75.8350 O.2    60  ARG60      -0.2867
     48  CB        -3.4670   52.2670   77.0580 C.3    60  ARG60       0.0307
     49  CG        -3.3890   53.2370   78.2180 C.3    60  ARG60       0.0489
     50  CD        -3.9150   54.6100   77.7680 C.3    60  ARG60       0.2205
     51  NE        -4.2770   55.4140   78.9340 N.pl3  60  ARG60      -0.0865
     52  CZ        -3.9540   56.6980   79.0860 C.cat  60  ARG60       0.5346
     53  NH1       -3.2480   57.3460   78.1380 N.pl3  60  ARG60       0.1354
     54  NH2       -4.3330   57.3390   80.1880 N.pl3  60  ARG60       0.1354
     55  N          2.1520   43.0310   84.4400 N.3   100  ARG100     -0.1231
     56  CA         3.0380   44.1750   84.5080 C.3   100  ARG100      0.1694
     57  C          3.0660   44.6120   85.9810 C.2   100  ARG100      0.2591
     58  O          2.0330   44.8850   86.5860 O.2   100  ARG100     -0.2718
     59  CB         2.5440   45.3700   83.7060 C.3   100  ARG100      0.0321
     60  CG         3.5990   46.5190   83.7130 C.3   100  ARG100      0.0489
     61  CD         3.1120   47.7380   82.9440 C.3   100  ARG100      0.2205
     62  NE         4.2040   48.6760   82.8010 N.pl3 100  ARG100     -0.0865
     63  CZ         4.1090   49.8920   82.2380 C.cat 100  ARG100      0.5346
     64  NH1        2.9430   50.3740   81.7680 N.pl3 100  ARG100      0.1354
     65  NH2        5.2180   50.6020   82.0480 N.pl3 100  ARG100      0.1354
     66  N          4.2420   44.6510   86.5620 N.am  101  ARG101     -0.1980
     67  CA         4.3900   45.0670   87.9430 C.3   101  ARG101      0.1597
     68  C          4.0460   46.5270   88.1170 C.2   101  ARG101      0.2287
     69  O          4.2020   47.3340   87.1900 O.2   101  ARG101     -0.2864
     70  CB         5.8620   44.8740   88.3410 C.3   101  ARG101      0.0334
     71  CG         6.1310   43.7190   89.2670 C.3   101  ARG101      0.0492
     72  CD         7.3870   42.8720   89.0160 C.3   101  ARG101      0.2205
     73  NE         8.5240   43.4170   88.2750 N.pl3 101  ARG101     -0.0865
     74  CZ         9.5340   42.6300   87.8310 C.cat 101  ARG101      0.5346
     75  NH1        9.5120   41.3060   88.0780 N.pl3 101  ARG101      0.1354
     76  NH2       10.5420   43.1250   87.1000 N.pl3 101  ARG101      0.1354
     77  N          4.8470   50.0710   90.7040 N.3   103  PRO103     -0.2116
     78  CA         6.0770   50.4860   91.3960 C.3   103  PRO103      0.1372
     79  C          6.2860   49.8050   92.7470 C.2   103  PRO103      0.2244
     80  O          5.3410   49.4730   93.4690 O.2   103  PRO103     -0.2868
     81  CB         5.8840   51.9750   91.6250 C.3   103  PRO103      0.0268
     82  CG         4.9510   52.4070   90.4640 C.3   103  PRO103      0.0207
     83  CD         3.9530   51.2270   90.4850 C.3   103  PRO103      0.0892
     84  N         10.2360   52.9550   90.3170 N.3   113  ARG113     -0.1245
     85  CA         9.4010   52.6880   89.1630 C.3   113  ARG113      0.1563
     86  C         10.0850   51.7760   88.1160 C.2   113  ARG113      0.2260
     87  O          9.4290   51.2790   87.2060 O.2   113  ARG113     -0.2867
     88  CB         8.8770   54.0030   88.5520 C.3   113  ARG113      0.0307
     89  CG         9.8910   54.9840   88.1900 C.3   113  ARG113      0.0489
     90  CD         9.2850   56.3010   87.6490 C.3   113  ARG113      0.2205
     91  NE        10.3900   57.1470   87.1960 N.pl3 113  ARG113     -0.0865
     92  CZ        10.3560   57.9850   86.1690 C.cat 113  ARG113      0.5346
     93  NH1        9.2370   58.1420   85.4330 N.pl3 113  ARG113      0.1354
     94  NH2       11.4890   58.6170   85.8370 N.pl3 113  ARG113      0.1354
     95  N          8.3240   48.5870   86.6580 N.3   116  VAL116     -0.1231
     96  CA         7.1980   48.5940   85.7310 C.3   116  VAL116      0.1692
     97  C          7.6670   48.5150   84.3180 C.2   116  VAL116      0.2592
     98  O          6.8600   48.3500   83.4010 O.2   116  VAL116     -0.2718
     99  CB         6.3480   49.8630   85.8310 C.3   116  VAL116      0.0266
    100  CG1        5.9750   50.1190   87.3000 C.3   116  VAL116      0.0020
    101  CG2        7.0620   51.0470   85.1750 C.3   116  VAL116      0.0020
    102  N          8.9700   48.6410   84.0840 N.am  117  ASN117     -0.1974
    103  CA         9.4080   48.6220   82.6940 C.3   117  ASN117      0.1688
    104  C          9.6980   47.2380   82.0820 C.2   117  ASN117      0.2292
    105  O         10.8400   46.9250   81.6760 O.2   117  ASN117     -0.2864
    106  CB        10.6130   49.5580   82.5270 C.3   117  ASN117      0.1181
    107  CG        10.2570   51.0570   82.7620 C.2   117  ASN117      0.2629
    108  OD1        9.1930   51.5090   82.3740 O.2   117  ASN117     -0.2716
    109  ND2       11.1700   51.8160   83.3680 N.am  117  ASN117     -0.0877
@<TRIPOS>BOND
     1    46    47    2
     2    46    45    1
     3    45    48    1
     4    45    44    1
     5    48    49    1
     6    50    49    1
     7    50    51    1
     8    53    52    1
     9    51    52    2
    10    52    54    1
    11    27    26    1
    12    43    41   ar
    13   105   104    2
    14    64    63    1
    15    65    63    1
    16   104   103    1
    17    38    39    2
    18    38    37    1
    19    24    26   ar
    20    24    22   ar
    21    63    62    2
    22    42    41   ar
    23    41    40    1
    24   108   107    2
    25    26    25   ar
    26   106   103    1
    27   106   107    1
    28   103   102    1
    29   107   109   am
    30    62    61    1
    31    61    60    1
    32    22    21   ar
    33    37    40    1
    34    37    36    1
    35    98    97    2
    36    25    23   ar
    37    59    60    1
    38    59    56    1
    39    16    17    1
    40   102    97   am
    41    97    96    1
    42    21    23   ar
    43    21    20    1
    44    55    56    1
    45    56    57    1
    46   101    99    1
    47    17    20    1
    48    17    18    1
    49    93    92    1
    50    96    99    1
    51    96    95    1
    52    99   100    1
    53    94    92    1
    54    57    66   am
    55    57    58    2
    56    19    18    2
    57    92    91    2
    58    66    67    1
    59    34    33   ar
    60    76    74    1
    61    69    68    2
    62    91    90    1
    63    87    86    2
    64    31    30    2
    65    90    89    1
    66    30    29    1
    67    35    33   ar
    68    33    32    1
    69    74    75    1
    70    74    73    2
    71    67    68    1
    72    67    70    1
    73    15    14    2
    74    86    85    1
    75    89    88    1
    76    73    72    1
    77    70    71    1
    78    88    85    1
    79    28    29    1
    80    29    32    1
    81    72    71    1
    82    14    13    1
    83    85    84    1
    84    13    12    1
    85    82    83    1
    86    82    81    1
    87    83    77    1
    88    77    78    1
    89    12     3   am
    90    78    81    1
    91    78    79    1
    92     4     3    2
    93     3     2    1
    94    79    80    2
    95    11    10   ar
    96    11     9   ar
    97    10     8   ar
    98     9     7   ar
    99     2     1    1
   100     2     5    1
   101     8     6   ar
   102     7     6   ar
   103     6     5    1
