@<TRIPOS>MOLECULE
tmp/1u9eA01.pdb
 156 145 0 0 0
SMALL
GASTEIGER

@<TRIPOS>ATOM
      1  N         37.4110   39.2840   41.9370 N.3    33  MET33      -0.1245
      2  CA        37.2010   37.9570   41.3620 C.3    33  MET33       0.1570
      3  C         37.1440   36.9220   42.4730 C.2    33  MET33       0.2261
      4  O         36.4770   35.8930   42.3540 O.2    33  MET33      -0.2867
      5  CB        38.3220   37.6080   40.3850 C.3    33  MET33       0.0387
      6  CG        38.2560   38.3810   39.0830 C.3    33  MET33       0.0595
      7  SD        36.6370   38.2050   38.3080 S.3    33  MET33      -0.1393
      8  CE        36.5870   36.4230   38.0840 C.3    33  MET33       0.0692
      9  N         33.5680   37.3250   43.8820 N.3    36  LEU36      -0.1231
     10  CA        32.5780   36.8850   42.9100 C.3    36  LEU36       0.1693
     11  C         32.5640   35.3600   42.7650 C.2    36  LEU36       0.2592
     12  O         31.4960   34.7470   42.6710 O.2    36  LEU36      -0.2718
     13  CB        32.8360   37.5620   41.5570 C.3    36  LEU36       0.0284
     14  CG        32.5570   39.0760   41.5420 C.3    36  LEU36       0.0019
     15  CD1       33.0850   39.7010   40.2690 C.3    36  LEU36       0.0001
     16  CD2       31.0640   39.3230   41.6690 C.3    36  LEU36       0.0001
     17  N         33.7410   34.7410   42.7600 N.am   37  THR37      -0.1953
     18  CA        33.8060   33.2890   42.6380 C.3    37  THR37       0.1897
     19  C         33.3760   32.6200   43.9420 C.2    37  THR37       0.2313
     20  O         32.6380   31.6380   43.9260 O.2    37  THR37      -0.2863
     21  CB        35.2260   32.8190   42.2370 C.3    37  THR37       0.1794
     22  OG1       36.1940   33.3150   43.1680 O.3    37  THR37      -0.2208
     23  CG2       35.5680   33.3410   40.8590 C.3    37  THR37       0.0378
     24  N         31.3030   33.7450   46.1480 N.3    39  LEU39      -0.1231
     25  CA        29.8540   33.9090   46.2870 C.3    39  LEU39       0.1693
     26  C         29.1020   32.9330   45.3890 C.2    39  LEU39       0.2591
     27  O         28.1430   32.2800   45.8190 O.2    39  LEU39      -0.2718
     28  CB        29.4390   35.3430   45.9280 C.3    39  LEU39       0.0284
     29  CG        27.9290   35.6180   45.8780 C.3    39  LEU39       0.0019
     30  CD1       27.3350   35.4450   47.2630 C.3    39  LEU39       0.0001
     31  CD2       27.6670   37.0210   45.3680 C.3    39  LEU39       0.0001
     32  N         29.5410   32.8470   44.1360 N.am   40  ALA40      -0.1980
     33  CA        28.9210   31.9570   43.1600 C.3    40  ALA40       0.1597
     34  C         28.9570   30.5270   43.6800 C.2    40  ALA40       0.2287
     35  O         27.9710   29.7910   43.5850 O.2    40  ALA40      -0.2864
     36  CB        29.6520   32.0520   41.8340 C.3    40  ALA40       0.0319
     37  N         26.3440   30.1490   46.4510 N.3    43  GLU43      -0.1245
     38  CA        24.9940   30.1870   45.8940 C.3    43  GLU43       0.1567
     39  C         24.6540   28.9140   45.1220 C.2    43  GLU43       0.2260
     40  O         23.4930   28.4990   45.0840 O.2    43  GLU43      -0.2867
     41  CB        24.8070   31.4040   44.9800 C.3    43  GLU43       0.0388
     42  CG        24.8790   32.7490   45.6850 C.3    43  GLU43       0.1160
     43  CD        24.3210   33.8770   44.8370 C.2    43  GLU43       0.3649
     44  OE1       23.0900   33.9300   44.6310 O.co2  43  GLU43      -0.2457
     45  OE2       25.1120   34.7140   44.3680 O.co2  43  GLU43      -0.2457
     46  N         24.4220   29.7790   35.6460 N.3    74  MET74      -0.1245
     47  CA        24.8200   31.1810   35.5970 C.3    74  MET74       0.1570
     48  C         23.6230   32.0970   35.3540 C.2    74  MET74       0.2261
     49  O         23.5560   33.1910   35.9020 O.2    74  MET74      -0.2867
     50  CB        25.8750   31.4170   34.5170 C.3    74  MET74       0.0387
     51  CG        26.3710   32.8600   34.4710 C.3    74  MET74       0.0595
     52  SD        27.0620   33.3760   36.0610 S.3    74  MET74      -0.1393
     53  CE        28.7560   32.7670   35.8820 C.3    74  MET74       0.0692
     54  N         21.7740   32.5500   38.6180 N.3    77  LEU77      -0.1231
     55  CA        22.5030   33.4200   39.5320 C.3    77  LEU77       0.1693
     56  C         22.2750   34.8780   39.1290 C.2    77  LEU77       0.2591
     57  O         21.9280   35.7230   39.9640 O.2    77  LEU77      -0.2718
     58  CB        24.0080   33.1260   39.4980 C.3    77  LEU77       0.0284
     59  CG        24.5700   31.8400   40.1200 C.3    77  LEU77       0.0019
     60  CD1       26.0900   31.8550   39.9830 C.3    77  LEU77       0.0001
     61  CD2       24.1870   31.7350   41.5820 C.3    77  LEU77       0.0001
     62  N         22.4650   35.1660   37.8460 N.am   78  MET78      -0.1979
     63  CA        22.2990   36.5210   37.3470 C.3    78  MET78       0.1605
     64  C         20.8560   37.0110   37.4380 C.2    78  MET78       0.2287
     65  O         20.6200   38.2110   37.5390 O.2    78  MET78      -0.2864
     66  CB        22.8380   36.6220   35.9140 C.3    78  MET78       0.0413
     67  CG        24.3440   36.3210   35.8320 C.3    78  MET78       0.0598
     68  SD        25.1450   36.5330   34.2120 S.3    78  MET78      -0.1393
     69  CE        23.7620   36.3370   33.1360 C.3    78  MET78       0.0692
     70  N         20.6470   38.0600   40.9780 N.3    81  LEU81      -0.1245
     71  CA        21.3700   39.3140   41.1270 C.3    81  LEU81       0.1561
     72  C         20.4930   40.4930   40.7050 C.2    81  LEU81       0.2260
     73  O         20.4220   41.5000   41.4040 O.2    81  LEU81      -0.2867
     74  CB        22.6400   39.2930   40.2690 C.3    81  LEU81       0.0270
     75  CG        23.3090   40.6370   39.9470 C.3    81  LEU81       0.0019
     76  CD1       23.7940   41.3010   41.2260 C.3    81  LEU81       0.0001
     77  CD2       24.4740   40.4070   38.9920 C.3    81  LEU81       0.0001
     78  N         17.6510   41.3100   43.1280 N.3    84  ARG84      -0.1245
     79  CA        18.1770   41.9320   44.3390 C.3    84  ARG84       0.1563
     80  C         18.5920   43.3720   44.0780 C.2    84  ARG84       0.2260
     81  O         18.5670   44.2020   44.9790 O.2    84  ARG84      -0.2867
     82  CB        19.3880   41.1540   44.8750 C.3    84  ARG84       0.0307
     83  CG        19.0680   39.7540   45.3660 C.3    84  ARG84       0.0489
     84  CD        20.2170   39.1680   46.1920 C.3    84  ARG84       0.2205
     85  NE        21.4300   38.9310   45.4120 N.pl3  84  ARG84      -0.0865
     86  CZ        21.5810   37.9340   44.5470 C.cat  84  ARG84       0.5346
     87  NH1       20.5900   37.0750   44.3390 N.pl3  84  ARG84       0.1354
     88  NH2       22.7350   37.7800   43.9060 N.pl3  84  ARG84       0.1354
     89  N         25.2460   41.9080   44.5030 N.3    94  PHE94      -0.1241
     90  CA        25.5970   40.4920   44.4600 C.3    94  PHE94       0.1605
     91  C         25.3330   39.8930   45.8340 C.2    94  PHE94       0.2264
     92  O         24.8660   38.7620   45.9650 O.2    94  PHE94      -0.2867
     93  CB        27.0730   40.3050   44.0930 C.3    94  PHE94       0.0534
     94  CG        27.3970   40.6690   42.6710 C.ar   94  PHE94      -0.0203
     95  CD1       27.6930   41.9830   42.3220 C.ar   94  PHE94      -0.0042
     96  CD2       27.4010   39.6930   41.6760 C.ar   94  PHE94      -0.0042
     97  CE1       27.9930   42.3200   41.0060 C.ar   94  PHE94      -0.0003
     98  CE2       27.6980   40.0180   40.3580 C.ar   94  PHE94      -0.0003
     99  CZ        27.9950   41.3370   40.0200 C.ar   94  PHE94      -0.0000
    100  N         34.9790   42.8400   32.4180 N.3   111  ILE111     -0.1245
    101  CA        33.8140   42.6740   33.2700 C.3   111  ILE111      0.1561
    102  C         32.8730   43.8730   33.2090 C.2   111  ILE111      0.2260
    103  O         31.6760   43.7390   33.4560 O.2   111  ILE111     -0.2867
    104  CB        34.2200   42.3660   34.7390 C.3   111  ILE111      0.0252
    105  CG1       33.5440   41.0570   35.1780 C.3   111  ILE111      0.0019
    106  CG2       33.8370   43.5140   35.6610 C.3   111  ILE111      0.0019
    107  CD1       33.8190   40.6470   36.6100 C.3   111  ILE111      0.0001
    108  N         30.0550   43.1430   30.9540 N.3   114  ILE114     -0.1231
    109  CA        29.0400   42.3140   31.5850 C.3   114  ILE114      0.1692
    110  C         28.2020   43.0570   32.6240 C.2   114  ILE114      0.2592
    111  O         27.0160   42.7870   32.7630 O.2   114  ILE114     -0.2718
    112  CB        29.7120   41.0670   32.2070 C.3   114  ILE114      0.0266
    113  CG1       30.3830   40.2530   31.0920 C.3   114  ILE114      0.0019
    114  CG2       28.6920   40.2070   32.9330 C.3   114  ILE114      0.0020
    115  CD1       31.3040   39.1710   31.5780 C.3   114  ILE114      0.0001
    116  N         28.8100   43.9970   33.3390 N.am  115  PHE115     -0.1976
    117  CA        28.0790   44.7760   34.3350 C.3   115  PHE115      0.1639
    118  C         27.0320   45.6380   33.6380 C.2   115  PHE115      0.2290
    119  O         25.8670   45.6530   34.0320 O.2   115  PHE115     -0.2864
    120  CB        29.0340   45.6680   35.1310 C.3   115  PHE115      0.0560
    121  CG        29.7570   44.9530   36.2420 C.ar  115  PHE115     -0.0200
    122  CD1       29.9510   43.5760   36.1970 C.ar  115  PHE115     -0.0042
    123  CD2       30.2750   45.6670   37.3190 C.ar  115  PHE115     -0.0042
    124  CE1       30.6530   42.9170   37.2100 C.ar  115  PHE115     -0.0003
    125  CE2       30.9800   45.0220   38.3350 C.ar  115  PHE115     -0.0003
    126  CZ        31.1690   43.6420   38.2810 C.ar  115  PHE115     -0.0000
    127  N         24.1820   43.6340   32.7160 N.3   118  LEU118     -0.1245
    128  CA        23.3840   43.3250   33.8880 C.3   118  LEU118      0.1561
    129  C         22.5950   44.5480   34.3540 C.2   118  LEU118      0.2260
    130  O         21.4030   44.4490   34.6560 O.2   118  LEU118     -0.2867
    131  CB        24.2930   42.8150   35.0090 C.3   118  LEU118      0.0270
    132  CG        25.0950   41.5520   34.6640 C.3   118  LEU118      0.0019
    133  CD1       26.0930   41.2490   35.7730 C.3   118  LEU118      0.0001
    134  CD2       24.1500   40.3820   34.4600 C.3   118  LEU118      0.0001
    135  N         29.2780   36.0170   30.7480 N.3   198  GLY198     -0.1225
    136  CA        29.8150   35.8620   32.0860 C.3   198  GLY198      0.1811
    137  C         30.5810   34.5560   32.2180 C.2   198  GLY198      0.2280
    138  O         31.5730   34.4800   32.9360 O.2   198  GLY198     -0.2866
    139  N         34.0020   34.8710   30.2820 N.3   201  HIS201     -0.1226
    140  CA        34.9140   35.6800   31.0790 C.3   201  HIS201      0.1752
    141  C         35.4220   34.8890   32.2820 C.2   201  HIS201      0.2595
    142  O         36.6020   34.9480   32.6210 O.2   201  HIS201     -0.2718
    143  CB        34.1900   36.9500   31.5340 C.3   201  HIS201      0.0759
    144  CG        35.0580   37.9210   32.2710 C.ar  201  HIS201      0.0818
    145  ND1       35.6100   37.6440   33.5030 N.ar  201  HIS201     -0.2268
    146  CD2       35.4480   39.1800   31.9590 C.ar  201  HIS201      0.1154
    147  CE1       36.3010   38.6900   33.9200 C.ar  201  HIS201      0.1986
    148  NE2       36.2180   39.6360   33.0020 N.ar  201  HIS201     -0.2212
    149  N         34.5270   34.1430   32.9200 N.am  202  LEU202     -0.1980
    150  CA        34.8940   33.3420   34.0800 C.3   202  LEU202      0.1596
    151  C         35.8140   32.1980   33.6790 C.2   202  LEU202      0.2287
    152  O         36.8120   31.9270   34.3530 O.2   202  LEU202     -0.2864
    153  CB        33.6430   32.7760   34.7580 C.3   202  LEU202      0.0297
    154  CG        33.8920   31.8470   35.9490 C.3   202  LEU202      0.0022
    155  CD1       34.8050   32.5240   36.9650 C.3   202  LEU202      0.0001
    156  CD2       32.5580   31.4780   36.5900 C.3   202  LEU202      0.0001
@<TRIPOS>BOND
     1   139   140    1
     2   135   136    1
     3   108   109    1
     4   140   143    1
     5   140   141    1
     6   113   115    1
     7   113   112    1
     8   143   144    1
     9   109   112    1
    10   109   110    1
    11   146   144   ar
    12   146   148   ar
    13   136   137    1
    14   112   114    1
    15   137   138    2
    16   144   145   ar
    17   141   142    2
    18   141   149   am
    19   100   101    1
    20   110   111    2
    21   110   116   am
    22   127   128    1
    23   149   150    1
    24   148   147   ar
    25    69    68    1
    26   102   101    1
    27   102   103    2
    28   101   104    1
    29   116   117    1
    30   145   147   ar
    31   118   119    2
    32   118   117    1
    33   151   150    1
    34   151   152    2
    35   128   129    1
    36   128   131    1
    37   150   153    1
    38    68    67    1
    39   117   120    1
    40   129   130    2
    41   134   132    1
    42    51    50    1
    43    51    52    1
    44    50    47    1
    45   132   131    1
    46   132   133    1
    47   104   105    1
    48   104   106    1
    49   153   154    1
    50   120   121    1
    51   105   107    1
    52    48    47    1
    53    48    49    2
    54    47    46    1
    55    67    66    1
    56    53    52    1
    57    66    63    1
    58   154   156    1
    59   154   155    1
    60   122   121   ar
    61   122   124   ar
    62   121   123   ar
    63   124   126   ar
    64   123   125   ar
    65    63    64    1
    66    63    62    1
    67    64    65    2
    68    62    56   am
    69     8     7    1
    70   126   125   ar
    71     7     6    1
    72    54    55    1
    73    77    75    1
    74     6     5    1
    75    56    55    1
    76    56    57    2
    77    58    55    1
    78    58    59    1
    79    75    74    1
    80    75    76    1
    81    60    59    1
    82    99    98   ar
    83    99    97   ar
    84    59    61    1
    85    74    71    1
    86    15    14    1
    87    98    96   ar
    88     5     2    1
    89    72    71    1
    90    72    73    2
    91    23    21    1
    92    70    71    1
    93    97    95   ar
    94     2     1    1
    95     2     3    1
    96    14    13    1
    97    14    16    1
    98    13    10    1
    99    96    94   ar
   100    36    33    1
   101    21    18    1
   102    21    22    1
   103    95    94   ar
   104     4     3    2
   105    18    17    1
   106    18    19    1
   107    12    11    2
   108    94    93    1
   109    17    11   am
   110    11    10    1
   111    10     9    1
   112    78    79    1
   113    33    34    1
   114    33    32    1
   115    35    34    2
   116    88    86    1
   117    20    19    2
   118    80    79    1
   119    80    81    2
   120    93    90    1
   121    32    26   am
   122    79    82    1
   123    87    86    1
   124    45    43   ar
   125    90    89    1
   126    90    91    1
   127    86    85    2
   128    44    43   ar
   129    43    42    1
   130    82    83    1
   131    41    42    1
   132    41    38    1
   133    40    39    2
   134    39    38    1
   135    83    84    1
   136    31    29    1
   137    26    27    2
   138    26    25    1
   139    85    84    1
   140    91    92    2
   141    29    28    1
   142    29    30    1
   143    38    37    1
   144    28    25    1
   145    24    25    1
