@<TRIPOS>MOLECULE
tmp/1u9nA00.pdb
 240 233 0 0 0
SMALL
GASTEIGER

@<TRIPOS>ATOM
      1  N         16.5530   82.4400    9.4170 N.3    55  LEU55      -0.1245
      2  CA        17.9430   82.1770    9.7790 C.3    55  LEU55       0.1561
      3  C         17.9890   81.0810   10.8370 C.2    55  LEU55       0.2260
      4  O         18.8360   80.1890   10.7940 O.2    55  LEU55      -0.2867
      5  CB        18.5990   83.4430   10.3370 C.3    55  LEU55       0.0270
      6  CG        20.0510   83.7770    9.9620 C.3    55  LEU55       0.0019
      7  CD1       20.7050   84.4320   11.1660 C.3    55  LEU55       0.0001
      8  CD2       20.8380   82.5360    9.5370 C.3    55  LEU55       0.0001
      9  N         25.1040   68.3520   11.5650 N.3    65  LEU65      -0.1245
     10  CA        26.3980   68.1040   12.1860 C.3    65  LEU65       0.1561
     11  C         26.2030   67.0900   13.3090 C.2    65  LEU65       0.2260
     12  O         27.0250   66.1990   13.5160 O.2    65  LEU65      -0.2867
     13  CB        26.9790   69.4010   12.7660 C.3    65  LEU65       0.0270
     14  CG        28.3350   69.2250   13.4590 C.3    65  LEU65       0.0019
     15  CD1       29.3650   68.7410   12.4360 C.3    65  LEU65       0.0001
     16  CD2       28.7800   70.5440   14.0920 C.3    65  LEU65       0.0001
     17  N         26.1360   63.6390   11.9840 N.3    68  LEU68      -0.1245
     18  CA        27.4710   63.1330   11.6710 C.3    68  LEU68       0.1561
     19  C         28.1890   62.7150   12.9410 C.2    68  LEU68       0.2260
     20  O         28.8760   61.6970   12.9680 O.2    68  LEU68      -0.2867
     21  CB        28.3090   64.1980   10.9650 C.3    68  LEU68       0.0270
     22  CG        28.0080   64.4460    9.4930 C.3    68  LEU68       0.0019
     23  CD1       28.9530   65.5170    8.9660 C.3    68  LEU68       0.0001
     24  CD2       28.1740   63.1440    8.7100 C.3    68  LEU68       0.0001
     25  N         37.0460   65.6350    8.4560 N.3    80  TRP80      -0.1241
     26  CA        36.8910   67.0840    8.5290 C.3    80  TRP80       0.1605
     27  C         36.1140   67.6390    7.3410 C.2    80  TRP80       0.2264
     28  O         35.3160   68.5650    7.4950 O.2    80  TRP80      -0.2867
     29  CB        38.2590   67.7630    8.6250 C.3    80  TRP80       0.0550
     30  CG        38.9530   67.4620    9.9170 C.ar   80  TRP80       0.0003
     31  CD1       40.0070   66.6180   10.1080 C.ar   80  TRP80       0.0946
     32  CD2       38.6030   67.9680   11.2130 C.ar   80  TRP80       0.0152
     33  NE1       40.3350   66.5630   11.4410 N.ar   80  TRP80      -0.2442
     34  CE2       39.4880   67.3820   12.1420 C.ar   80  TRP80       0.0810
     35  CE3       37.6250   68.8570   11.6760 C.ar   80  TRP80       0.0012
     36  CZ2       39.4270   67.6560   13.5100 C.ar   80  TRP80       0.0191
     37  CZ3       37.5620   69.1310   13.0390 C.ar   80  TRP80       0.0001
     38  CH2       38.4610   68.5290   13.9390 C.ar   80  TRP80       0.0015
     39  N         33.7180   66.1750    5.6090 N.3    82  THR82      -0.1203
     40  CA        32.2970   65.9070    5.7770 C.3    82  THR82       0.1994
     41  C         31.6870   66.8840    6.7760 C.2    82  THR82       0.2618
     42  O         30.5520   67.3300    6.6060 O.2    82  THR82      -0.2717
     43  CB        32.0550   64.4630    6.2600 C.3    82  THR82       0.1784
     44  OG1       32.6190   64.2910    7.5650 O.3    82  THR82      -0.2211
     45  CG2       32.7160   63.4770    5.3180 C.3    82  THR82       0.0376
     46  N         32.4420   67.2120    7.8210 N.am   83  GLY83      -0.1942
     47  CA        31.9580   68.1500    8.8190 C.3    83  GLY83       0.2014
     48  C         31.8020   69.5410    8.2210 C.2    83  GLY83       0.2638
     49  O         30.7820   70.2060    8.4220 O.2    83  GLY83      -0.2714
     50  N         32.8150   69.9840    7.4820 N.am   84  ILE84      -0.1977
     51  CA        32.7730   71.3010    6.8470 C.3    84  ILE84       0.1596
     52  C         31.6890   71.3540    5.7690 C.2    84  ILE84       0.2287
     53  O         31.0320   72.3820    5.5880 O.2    84  ILE84      -0.2864
     54  CB        34.1270   71.6580    6.1860 C.3    84  ILE84       0.0276
     55  CG1       35.2510   71.6190    7.2250 C.3    84  ILE84       0.0022
     56  CG2       34.0420   73.0250    5.5310 C.3    84  ILE84       0.0022
     57  CD1       34.9320   72.3770    8.4840 C.3    84  ILE84       0.0001
     58  N         28.1320   72.6400    6.5050 N.3    87  PHE87      -0.1241
     59  CA        27.9180   74.0820    6.4370 C.3    87  PHE87       0.1605
     60  C         27.9610   74.6440    5.0090 C.2    87  PHE87       0.2264
     61  O         27.1770   75.5200    4.6570 O.2    87  PHE87      -0.2867
     62  CB        28.9320   74.7790    7.3540 C.3    87  PHE87       0.0534
     63  CG        28.8030   74.3620    8.7960 C.ar   87  PHE87      -0.0203
     64  CD1       29.3800   73.1770    9.2470 C.ar   87  PHE87      -0.0042
     65  CD2       28.0160   75.0980    9.6760 C.ar   87  PHE87      -0.0042
     66  CE1       29.1720   72.7270   10.5500 C.ar   87  PHE87      -0.0003
     67  CE2       27.8000   74.6610   10.9780 C.ar   87  PHE87      -0.0003
     68  CZ        28.3810   73.4660   11.4160 C.ar   87  PHE87      -0.0000
     69  N         24.2090   76.1790    4.1470 N.3    91  PHE91      -0.1241
     70  CA        24.1210   77.6160    3.8710 C.3    91  PHE91       0.1605
     71  C         24.2450   77.9190    2.3830 C.2    91  PHE91       0.2264
     72  O         23.7110   78.9200    1.8930 O.2    91  PHE91      -0.2867
     73  CB        25.1860   78.3880    4.6650 C.3    91  PHE91       0.0534
     74  CG        24.9520   78.3770    6.1590 C.ar   91  PHE91      -0.0203
     75  CD1       25.3790   77.3110    6.9370 C.ar   91  PHE91      -0.0042
     76  CD2       24.2580   79.4190    6.7760 C.ar   91  PHE91      -0.0042
     77  CE1       25.1160   77.2760    8.3140 C.ar   91  PHE91      -0.0003
     78  CE2       23.9910   79.3920    8.1450 C.ar   91  PHE91      -0.0003
     79  CZ        24.4230   78.3150    8.9140 C.ar   91  PHE91      -0.0000
     80  N         21.1800   83.6050    3.9710 N.3    98  THR98      -0.1218
     81  CA        22.5030   83.7840    4.5570 C.3    98  THR98       0.1862
     82  C         22.9320   85.2430    4.3960 C.2    98  THR98       0.2287
     83  O         23.4070   85.8710    5.3450 O.2    98  THR98      -0.2866
     84  CB        23.5350   82.8620    3.8770 C.3    98  THR98       0.1770
     85  OG1       23.2320   81.4960    4.1940 O.3    98  THR98      -0.2211
     86  CG2       24.9460   83.1920    4.3460 C.3    98  THR98       0.0375
     87  N         20.5960   87.4660    6.4290 N.3   101  GLY101     -0.1210
     88  CA        20.9160   87.2420    7.8250 C.3   101  GLY101      0.1956
     89  C         22.1700   87.9910    8.2470 C.2   101  GLY101      0.2611
     90  O         22.2230   88.5560    9.3400 O.2   101  GLY101     -0.2717
     91  N         23.1850   88.0080    7.3880 N.am  102  GLN102     -0.1979
     92  CA        24.4200   88.7100    7.7290 C.3   102  GLN102      0.1601
     93  C         24.1690   90.2090    7.8210 C.2   102  GLN102      0.2287
     94  O         24.5850   90.8580    8.7740 O.2   102  GLN102     -0.2864
     95  CB        25.5140   88.4350    6.6910 C.3   102  GLN102      0.0394
     96  CG        26.8630   89.0600    7.0420 C.3   102  GLN102      0.0908
     97  CD        27.2830   90.1790    6.0880 C.2   102  GLN102      0.2608
     98  OE1       26.5170   91.1080    5.8100 O.2   102  GLN102     -0.2717
     99  NE2       28.5140   90.0960    5.5930 N.am  102  GLN102     -0.0878
    100  N         22.5050   91.4080   11.1300 N.3   105  ARG105     -0.1245
    101  CA        23.2870   91.4170   12.3620 C.3   105  ARG105      0.1563
    102  C         23.6010   92.8170   12.8910 C.2   105  ARG105      0.2260
    103  O         23.6770   93.0300   14.1000 O.2   105  ARG105     -0.2867
    104  CB        24.6000   90.6650   12.1500 C.3   105  ARG105      0.0307
    105  CG        25.4340   90.5340   13.4070 C.3   105  ARG105      0.0489
    106  CD        26.7740   89.8790   13.1240 C.3   105  ARG105      0.2205
    107  NE        27.5840   89.7320   14.3330 N.pl3 105  ARG105     -0.0865
    108  CZ        27.9670   90.7440   15.1090 C.cat 105  ARG105      0.5346
    109  NH1       27.6160   91.9930   14.8090 N.pl3 105  ARG105      0.1354
    110  NH2       28.7040   90.5110   16.1900 N.pl3 105  ARG105      0.1354
    111  N         19.4680   88.3830   15.8830 N.3   111  VAL111     -0.1245
    112  CA        20.3120   87.7380   14.8840 C.3   111  VAL111      0.1561
    113  C         21.7340   87.5680   15.4130 C.2   111  VAL111      0.2260
    114  O         22.3130   86.4880   15.3140 O.2   111  VAL111     -0.2867
    115  CB        20.3570   88.5700   13.5720 C.3   111  VAL111      0.0252
    116  CG1       21.4010   88.0040   12.6210 C.3   111  VAL111      0.0019
    117  CG2       18.9810   88.5640   12.9090 C.3   111  VAL111      0.0019
    118  N         23.4930   83.8500   16.0420 N.3   115  TRP115     -0.1241
    119  CA        24.7200   83.4380   15.3650 C.3   115  TRP115      0.1605
    120  C         25.8530   83.1690   16.3530 C.2   115  TRP115      0.2264
    121  O         26.6020   82.1990   16.2230 O.2   115  TRP115     -0.2867
    122  CB        25.1590   84.5090   14.3680 C.3   115  TRP115      0.0550
    123  CG        26.2610   84.0270   13.4960 C.ar  115  TRP115      0.0003
    124  CD1       27.5660   84.4190   13.5250 C.ar  115  TRP115      0.0946
    125  CD2       26.1650   83.0120   12.4920 C.ar  115  TRP115      0.0152
    126  NE1       28.2910   83.7110   12.6020 N.ar  115  TRP115     -0.2442
    127  CE2       27.4570   82.8380   11.9540 C.ar  115  TRP115      0.0810
    128  CE3       25.1130   82.2300   11.9980 C.ar  115  TRP115      0.0012
    129  CZ2       27.7290   81.9100   10.9430 C.ar  115  TRP115      0.0191
    130  CZ3       25.3820   81.3060   10.9920 C.ar  115  TRP115      0.0001
    131  CH2       26.6820   81.1540   10.4760 C.ar  115  TRP115      0.0015
    132  N         29.6170   75.4410   17.7210 N.3   121  TRP121     -0.1241
    133  CA        30.3870   74.7650   16.6840 C.3   121  TRP121      0.1605
    134  C         31.8820   74.8400   16.9660 C.2   121  TRP121      0.2264
    135  O         32.6500   73.9650   16.5620 O.2   121  TRP121     -0.2867
    136  CB        30.0460   75.3620   15.3150 C.3   121  TRP121      0.0550
    137  CG        28.5830   75.1990   14.9770 C.ar  121  TRP121      0.0003
    138  CD1       27.7770   74.1540   15.3360 C.ar  121  TRP121      0.0946
    139  CD2       27.7640   76.0900   14.2090 C.ar  121  TRP121      0.0152
    140  NE1       26.5100   74.3380   14.8420 N.ar  121  TRP121     -0.2442
    141  CE2       26.4720   75.5180   14.1450 C.ar  121  TRP121      0.0810
    142  CE3       27.9930   77.3170   13.5700 C.ar  121  TRP121      0.0012
    143  CZ2       25.4110   76.1300   13.4610 C.ar  121  TRP121      0.0191
    144  CZ3       26.9390   77.9260   12.8920 C.ar  121  TRP121      0.0001
    145  CH2       25.6640   77.3290   12.8440 C.ar  121  TRP121      0.0015
    146  N         32.6390   72.1660   19.6490 N.3   124  TYR124     -0.1227
    147  CA        32.6720   70.8230   19.0700 C.3   124  TYR124      0.1736
    148  C         33.9870   70.5760   18.3200 C.2   124  TYR124      0.2596
    149  O         34.5970   69.5150   18.4410 O.2   124  TYR124     -0.2718
    150  CB        31.4860   70.6130   18.1200 C.3   124  TYR124      0.0548
    151  CG        31.4580   69.2220   17.5260 C.ar  124  TYR124     -0.0200
    152  CD1       31.2490   68.1050   18.3360 C.ar  124  TYR124     -0.0009
    153  CD2       31.7150   69.0140   16.1720 C.ar  124  TYR124     -0.0009
    154  CE1       31.3040   66.8150   17.8180 C.ar  124  TYR124      0.0417
    155  CE2       31.7700   67.7220   15.6380 C.ar  124  TYR124      0.0417
    156  CZ        31.5670   66.6290   16.4720 C.ar  124  TYR124      0.1957
    157  OH        31.6500   65.3470   15.9680 O.3   124  TYR124     -0.2866
    158  N         34.4130   71.5550   17.5330 N.am  125  THR125     -0.1953
    159  CA        35.6640   71.4480   16.7860 C.3   125  THR125      0.1897
    160  C         36.8140   71.2230   17.7570 C.2   125  THR125      0.2313
    161  O         37.7130   70.4290   17.4980 O.2   125  THR125     -0.2863
    162  CB        35.9520   72.7450   15.9940 C.3   125  THR125      0.1794
    163  OG1       34.8840   72.9830   15.0750 O.3   125  THR125     -0.2208
    164  CG2       37.2720   72.6380   15.2290 C.3   125  THR125      0.0378
    165  N         36.7610   67.6370   19.1290 N.3   128  VAL128     -0.1245
    166  CA        37.2950   66.6860   18.1620 C.3   128  VAL128      0.1561
    167  C         38.8140   66.8160   18.1160 C.2   128  VAL128      0.2260
    168  O         39.5230   65.8120   18.1150 O.2   128  VAL128     -0.2867
    169  CB        36.7060   66.9150   16.7540 C.3   128  VAL128      0.0252
    170  CG1       37.3110   65.9260   15.7610 C.3   128  VAL128      0.0019
    171  CG2       35.1990   66.7520   16.8000 C.3   128  VAL128      0.0019
    172  N         37.0660   78.3270   12.5740 N.3   152  ASN152     -0.1240
    173  CA        35.6260   78.5380   12.4280 C.3   152  ASN152      0.1653
    174  C         35.3370   79.9410   11.8850 C.2   152  ASN152      0.2266
    175  O         34.4830   80.1110   11.0140 O.2   152  ASN152     -0.2867
    176  CB        34.9280   78.3530   13.7820 C.3   152  ASN152      0.1155
    177  CG        34.5300   76.9110   14.0450 C.2   152  ASN152      0.2627
    178  OD1       33.3720   76.5460   13.8730 O.2   152  ASN152     -0.2716
    179  ND2       35.4870   76.0870   14.4610 N.am  152  ASN152     -0.0877
    180  N         36.0520   80.0050    8.2020 N.3   154  ASN154     -0.1225
    181  CA        34.9670   79.4170    7.4200 C.3   154  ASN154      0.1785
    182  C         33.7800   80.3610    7.2770 C.2   154  ASN154      0.2597
    183  O         33.2220   80.5020    6.1920 O.2   154  ASN154     -0.2718
    184  CB        34.4830   78.1070    8.0500 C.3   154  ASN154      0.1169
    185  CG        35.4180   76.9590    7.7930 C.2   154  ASN154      0.2627
    186  OD1       35.0290   75.7920    7.9100 O.2   154  ASN154     -0.2716
    187  ND2       36.6620   77.2700    7.4410 N.am  154  ASN154     -0.0877
    188  N         33.3850   80.9850    8.3830 N.am  155  GLU155     -0.1979
    189  CA        32.2640   81.9210    8.3820 C.3   155  GLU155      0.1602
    190  C         32.4860   83.0180    7.3300 C.2   155  GLU155      0.2287
    191  O         31.6140   83.2830    6.4930 O.2   155  GLU155     -0.2864
    192  CB        32.1160   82.5600    9.7700 C.3   155  GLU155      0.0415
    193  CG        31.0520   83.6490    9.8540 C.3   155  GLU155      0.1163
    194  CD        31.2060   84.5310   11.0770 C.2   155  GLU155      0.3649
    195  OE1       30.8990   84.0820   12.2030 O.co2 155  GLU155     -0.2457
    196  OE2       31.6500   85.6810   10.9170 O.co2 155  GLU155     -0.2457
    197  N         33.3530   81.2640    3.5270 N.3   158  LEU158     -0.1231
    198  CA        32.1710   80.7000    2.8860 C.3   158  LEU158      0.1693
    199  C         31.2200   81.8140    2.4390 C.2   158  LEU158      0.2592
    200  O         30.6910   81.7850    1.3260 O.2   158  LEU158     -0.2718
    201  CB        31.4440   79.7410    3.8350 C.3   158  LEU158      0.0284
    202  CG        32.0990   78.3760    4.0910 C.3   158  LEU158      0.0019
    203  CD1       31.2840   77.6040    5.1090 C.3   158  LEU158      0.0001
    204  CD2       32.2040   77.5900    2.7880 C.3   158  LEU158      0.0001
    205  N         31.0060   82.8010    3.3000 N.am  159  PHE159     -0.1976
    206  CA        30.1260   83.9070    2.9550 C.3   159  PHE159      0.1639
    207  C         30.6530   84.6410    1.7200 C.2   159  PHE159      0.2290
    208  O         29.9040   84.9190    0.7820 O.2   159  PHE159     -0.2864
    209  CB        30.0080   84.9010    4.1130 C.3   159  PHE159      0.0560
    210  CG        28.9790   85.9760    3.8740 C.ar  159  PHE159     -0.0200
    211  CD1       27.6470   85.7730    4.2270 C.ar  159  PHE159     -0.0042
    212  CD2       29.3250   87.1520    3.2150 C.ar  159  PHE159     -0.0042
    213  CE1       26.6730   86.7160    3.9240 C.ar  159  PHE159     -0.0003
    214  CE2       28.3550   88.1090    2.9020 C.ar  159  PHE159     -0.0003
    215  CZ        27.0270   87.8910    3.2560 C.ar  159  PHE159     -0.0000
    216  N         29.9260   82.5140   -1.3360 N.3   162  PHE162     -0.1241
    217  CA        28.5000   82.4120   -1.6290 C.3   162  PHE162      0.1605
    218  C         27.9820   83.7240   -2.2060 C.2   162  PHE162      0.2264
    219  O         27.0780   83.7270   -3.0340 O.2   162  PHE162     -0.2867
    220  CB        27.7030   82.0860   -0.3510 C.3   162  PHE162      0.0534
    221  CG        27.9040   80.6830    0.1720 C.ar  162  PHE162     -0.0203
    222  CD1       27.6590   80.3950    1.5130 C.ar  162  PHE162     -0.0042
    223  CD2       28.3240   79.6560   -0.6620 C.ar  162  PHE162     -0.0042
    224  CE1       27.8320   79.1100    2.0200 C.ar  162  PHE162     -0.0003
    225  CE2       28.5010   78.3650   -0.1680 C.ar  162  PHE162     -0.0003
    226  CZ        28.2560   78.0910    1.1790 C.ar  162  PHE162     -0.0000
    227  N         42.3810   73.4870    7.4890 N.3   182  TRP182     -0.1241
    228  CA        42.0080   72.8310    8.7320 C.3   182  TRP182      0.1605
    229  C         42.9350   71.6510    9.0190 C.2   182  TRP182      0.2264
    230  O         43.4960   71.5460   10.1040 O.2   182  TRP182     -0.2867
    231  CB        40.5580   72.3280    8.6710 C.3   182  TRP182      0.0550
    232  CG        39.5190   73.3770    8.9330 C.ar  182  TRP182      0.0003
    233  CD1       39.3670   74.5630    8.2820 C.ar  182  TRP182      0.0946
    234  CD2       38.4900   73.3300    9.9310 C.ar  182  TRP182      0.0152
    235  NE1       38.3050   75.2650    8.8130 N.ar  182  TRP182     -0.2442
    236  CE2       37.7520   74.5300    9.8290 C.ar  182  TRP182      0.0810
    237  CE3       38.1210   72.3890   10.9030 C.ar  182  TRP182      0.0012
    238  CZ2       36.6620   74.8180   10.6670 C.ar  182  TRP182      0.0191
    239  CZ3       37.0380   72.6720   11.7320 C.ar  182  TRP182      0.0001
    240  CH2       36.3230   73.8770   11.6080 C.ar  182  TRP182      0.0015
@<TRIPOS>BOND
     1   219   218    2
     2   218   217    1
     3   217   216    1
     4   217   220    1
     5   223   225   ar
     6   223   221   ar
     7   220   221    1
     8   225   226   ar
     9   221   222   ar
    10   208   207    2
    11   226   224   ar
    12   200   199    2
    13   222   224   ar
    14   207   206    1
    15    72    71    2
    16    71    70    1
    17   199   198    1
    18   199   205   am
    19   204   202    1
    20   198   197    1
    21   198   201    1
    22   214   212   ar
    23   214   215   ar
    24   206   205    1
    25   206   209    1
    26   212   210   ar
    27   215   213   ar
    28   201   202    1
    29    70    69    1
    30    70    73    1
    31   210   209    1
    32   210   211   ar
    33    84    85    1
    34    84    86    1
    35    84    81    1
    36   213   211   ar
    37    80    81    1
    38   202   203    1
    39    82    81    1
    40    82    83    2
    41    61    60    2
    42    73    74    1
    43    60    59    1
    44    45    43    1
    45    56    54    1
    46    53    52    2
    47    99    97   am
    48    39    40    1
    49    52    51    1
    50    40    43    1
    51    40    41    1
    52    98    97    2
    53    97    96    1
    54    74    76   ar
    55    74    75   ar
    56    54    51    1
    57    54    55    1
    58   183   182    2
    59    43    44    1
    60    87    88    1
    61    59    58    1
    62    59    62    1
    63   191   190    2
    64    42    41    2
    65    95    96    1
    66    95    92    1
    67    76    78   ar
    68    41    46   am
    69    51    50    1
    70    75    77   ar
    71    55    57    1
    72   182   181    1
    73   182   188   am
    74   190   189    1
    75    27    28    2
    76    27    26    1
    77    62    63    1
    78    91    92    1
    79    91    89   am
    80   181   184    1
    81   181   180    1
    82   187   185   am
    83    50    48   am
    84   227   228    1
    85    92    93    1
    86   185   186    2
    87   185   184    1
    88    93    94    2
    89    46    47    1
    90    88    89    1
    91    78    79   ar
    92    48    49    2
    93    48    47    1
    94    89    90    2
    95   233   235   ar
    96   233   232   ar
    97    77    79   ar
    98   189   188    1
    99   189   192    1
   100    25    26    1
   101    26    29    1
   102    29    30    1
   103   231   228    1
   104   231   232    1
   105    24    22    1
   106   228   229    1
   107    63    64   ar
   108    63    65   ar
   109   235   236   ar
   110   232   234   ar
   111    23    22    1
   112   229   230    2
   113    64    66   ar
   114     1     2    1
   115    22    21    1
   116     8     6    1
   117    65    67   ar
   118   192   193    1
   119     2     5    1
   120     2     3    1
   121   236   234   ar
   122   236   238   ar
   123   193   194    1
   124    30    31   ar
   125    30    32   ar
   126   234   237   ar
   127     6     5    1
   128     6     7    1
   129    31    33   ar
   130   131   129   ar
   131   131   130   ar
   132    66    68   ar
   133   238   240   ar
   134     4     3    2
   135   237   239   ar
   136   196   194   ar
   137   129   127   ar
   138    21    18    1
   139    67    68   ar
   140   130   128   ar
   141   175   174    2
   142   194   195   ar
   143   100   101    1
   144    32    35   ar
   145    32    34   ar
   146    33    34   ar
   147     9    10    1
   148   240   239   ar
   149    18    17    1
   150    18    19    1
   151    35    37   ar
   152   174   173    1
   153   127   125   ar
   154   127   126   ar
   155   128   125   ar
   156    34    36   ar
   157   104   101    1
   158   104   105    1
   159    10    13    1
   160    10    11    1
   161   101   102    1
   162   173   172    1
   163   173   176    1
   164    15    14    1
   165   125   123   ar
   166   126   124   ar
   167   116   115    1
   168    13    14    1
   169   145   144   ar
   170   145   143   ar
   171   102   103    2
   172   144   142   ar
   173   117   115    1
   174    19    20    2
   175    37    38   ar
   176   106   105    1
   177   106   107    1
   178    11    12    2
   179    14    16    1
   180   143   141   ar
   181   123   124   ar
   182   123   122    1
   183    36    38   ar
   184   142   139   ar
   185   115   112    1
   186   176   177    1
   187   178   177    2
   188   177   179   am
   189   141   139   ar
   190   141   140   ar
   191   139   137   ar
   192   107   108    2
   193   122   119    1
   194   109   108    1
   195   140   138   ar
   196   112   113    1
   197   112   111    1
   198   137   136    1
   199   137   138   ar
   200   163   162    1
   201   108   110    1
   202   164   162    1
   203   114   113    2
   204   136   133    1
   205   119   118    1
   206   119   120    1
   207   155   153   ar
   208   155   156   ar
   209   170   169    1
   210   157   156    1
   211   162   159    1
   212   153   151   ar
   213   121   120    2
   214   156   154   ar
   215   135   134    2
   216   133   134    1
   217   133   132    1
   218   169   171    1
   219   169   166    1
   220   159   158    1
   221   159   160    1
   222   161   160    2
   223   151   150    1
   224   151   152   ar
   225   158   148   am
   226   154   152   ar
   227   168   167    2
   228   167   166    1
   229   150   147    1
   230   166   165    1
   231   148   149    2
   232   148   147    1
   233   147   146    1
