@<TRIPOS>MOLECULE
tmp/1u9oB00.pdb
 219 214 0 0 0
SMALL
GASTEIGER

@<TRIPOS>ATOM
      1  N        118.4350    9.2650   33.6620 N.3    66  LEU66      -0.1245
      2  CA       117.3230    8.4200   33.2430 C.3    66  LEU66       0.1561
      3  C        117.4280    7.0210   33.8340 C.2    66  LEU66       0.2260
      4  O        116.4210    6.3820   34.1400 O.2    66  LEU66      -0.2867
      5  CB       117.2640    8.3410   31.7130 C.3    66  LEU66       0.0270
      6  CG       116.1050    7.5110   31.1440 C.3    66  LEU66       0.0019
      7  CD1      115.6570    8.0480   29.7910 C.3    66  LEU66       0.0001
      8  CD2      116.5270    6.0600   31.0560 C.3    66  LEU66       0.0001
      9  N        115.7510    6.4490   36.9430 N.3    69  LEU69      -0.1245
     10  CA       114.3090    6.2860   36.8260 C.3    69  LEU69       0.1561
     11  C        113.9260    4.8730   36.4210 C.2    69  LEU69       0.2260
     12  O        112.7740    4.4820   36.5660 O.2    69  LEU69      -0.2867
     13  CB       113.7200    7.2600   35.8110 C.3    69  LEU69       0.0270
     14  CG       113.7800    8.7540   36.1120 C.3    69  LEU69       0.0019
     15  CD1      112.6750    9.4340   35.3120 C.3    69  LEU69       0.0001
     16  CD2      113.5980    9.0220   37.6030 C.3    69  LEU69       0.0001
     17  N        105.0960    9.3730   33.4970 N.3    81  MET81      -0.1230
     18  CA       106.1070    8.3550   33.2890 C.3    81  MET81       0.1702
     19  C        106.9210    8.7240   32.0500 C.2    81  MET81       0.2592
     20  O        108.1050    8.4090   31.9660 O.2    81  MET81      -0.2718
     21  CB       105.4390    7.0020   33.0910 C.3    81  MET81       0.0401
     22  CG       106.3870    5.9070   32.6950 C.3    81  MET81       0.0596
     23  SD       105.4860    4.3790   32.5920 S.3    81  MET81      -0.1393
     24  CE       105.7500    3.7010   34.2570 C.3    81  MET81       0.0692
     25  N        106.2720    9.3930   31.0960 N.am   82  TRP82      -0.1976
     26  CA       106.9200    9.8260   29.8590 C.3    82  TRP82       0.1640
     27  C        107.5060   11.2080   30.0350 C.2    82  TRP82       0.2290
     28  O        108.7000   11.4020   29.8320 O.2    82  TRP82      -0.2864
     29  CB       105.9360    9.8530   28.6860 C.3    82  TRP82       0.0576
     30  CG       105.4500    8.5020   28.2900 C.ar   82  TRP82       0.0006
     31  CD1      104.3170    7.8770   28.7240 C.ar   82  TRP82       0.0946
     32  CD2      106.1020    7.5820   27.4150 C.ar   82  TRP82       0.0152
     33  NE1      104.2220    6.6220   28.1740 N.ar   82  TRP82      -0.2442
     34  CE2      105.3060    6.4160   27.3640 C.ar   82  TRP82       0.0810
     35  CE3      107.2820    7.6270   26.6680 C.ar   82  TRP82       0.0012
     36  CZ2      105.6520    5.3070   26.5940 C.ar   82  TRP82       0.0191
     37  CZ3      107.6260    6.5220   25.9040 C.ar   82  TRP82       0.0001
     38  CH2      106.8110    5.3770   25.8720 C.ar   82  TRP82       0.0015
     39  N        110.7300   11.6540   31.7780 N.3    85  GLY85      -0.1210
     40  CA       111.9040   11.1190   31.1030 C.3    85  GLY85       0.1956
     41  C        112.5110   12.1510   30.1690 C.2    85  GLY85       0.2611
     42  O        113.7130   12.4280   30.1820 O.2    85  GLY85      -0.2717
     43  N        111.6470   12.7240   29.3500 N.am   86  ILE86      -0.1979
     44  CA       112.0300   13.7420   28.3930 C.3    86  ILE86       0.1595
     45  C        112.6390   14.9240   29.1510 C.2    86  ILE86       0.2287
     46  O        113.6270   15.5290   28.7160 O.2    86  ILE86      -0.2864
     47  CB       110.7730   14.1800   27.5880 C.3    86  ILE86       0.0276
     48  CG1      110.1800   12.9570   26.8780 C.3    86  ILE86       0.0022
     49  CG2      111.1210   15.2640   26.5900 C.3    86  ILE86       0.0022
     50  CD1      108.9440   13.2370   26.0850 C.3    86  ILE86       0.0001
     51  N        116.3870   15.0930   29.7230 N.3    89  PHE89      -0.1241
     52  CA       117.0560   15.7260   28.6310 C.3    89  PHE89       0.1605
     53  C        116.8040   17.2190   28.6080 C.2    89  PHE89       0.2264
     54  O        117.7420   17.9950   28.4500 O.2    89  PHE89      -0.2867
     55  CB       116.6210   15.0460   27.3540 C.3    89  PHE89       0.0534
     56  CG       116.8950   13.5720   27.3570 C.ar   89  PHE89      -0.0203
     57  CD1      116.1330   12.7090   28.1370 C.ar   89  PHE89      -0.0042
     58  CD2      117.9530   13.0460   26.6300 C.ar   89  PHE89      -0.0042
     59  CE1      116.4280   11.3460   28.1880 C.ar   89  PHE89      -0.0003
     60  CE2      118.2460   11.6940   26.6770 C.ar   89  PHE89      -0.0003
     61  CZ       117.4840   10.8400   27.4600 C.ar   89  PHE89      -0.0000
     62  N        120.6000   18.7980   29.4550 N.3    93  PHE93      -0.1241
     63  CA       121.1920   19.5950   28.3870 C.3    93  PHE93       0.1605
     64  C        120.7650   21.0360   28.4370 C.2    93  PHE93       0.2264
     65  O        121.5120   21.9280   28.0490 O.2    93  PHE93      -0.2867
     66  CB       120.8460   19.0020   27.0340 C.3    93  PHE93       0.0534
     67  CG       121.4750   17.6920   26.8130 C.ar   93  PHE93      -0.0203
     68  CD1      120.8000   16.5340   27.1250 C.ar   93  PHE93      -0.0042
     69  CD2      122.7910   17.6180   26.3930 C.ar   93  PHE93      -0.0042
     70  CE1      121.4260   15.3200   27.0340 C.ar   93  PHE93      -0.0003
     71  CE2      123.4290   16.4130   26.2980 C.ar   93  PHE93      -0.0003
     72  CZ       122.7500   15.2570   26.6180 C.ar   93  PHE93      -0.0000
     73  N        126.1600   21.9370   24.6870 N.3   100  THR100     -0.1218
     74  CA       125.3390   21.2900   23.6800 C.3   100  THR100      0.1862
     75  C        125.6240   21.9580   22.3520 C.2   100  THR100      0.2287
     76  O        125.9950   21.2910   21.3870 O.2   100  THR100     -0.2866
     77  CB       123.8470   21.3980   23.9840 C.3   100  THR100      0.1770
     78  OG1      123.6250   21.1810   25.3790 O.3   100  THR100     -0.2211
     79  CG2      123.0910   20.3360   23.2280 C.3   100  THR100      0.0375
     80  N        127.3680   19.9570   19.3060 N.3   104  GLN104     -0.1245
     81  CA       126.6730   19.9150   18.0280 C.3   104  GLN104      0.1566
     82  C        127.5530   20.4200   16.8900 C.2   104  GLN104      0.2260
     83  O        128.1520   19.6390   16.1480 O.2   104  GLN104     -0.2867
     84  CB       125.4010   20.7680   18.0960 C.3   104  GLN104      0.0367
     85  CG       124.8680   21.2480   16.7390 C.3   104  GLN104      0.0905
     86  CD       124.5150   20.1060   15.7930 C.2   104  GLN104      0.2608
     87  OE1      123.5940   19.3160   16.0550 O.2   104  GLN104     -0.2717
     88  NE2      125.2490   20.0110   14.6800 N.am  104  GLN104     -0.0878
     89  N        127.7640   10.3680   20.3170 N.3   117  TRP117     -0.1241
     90  CA       126.3690   10.7420   20.2520 C.3   117  TRP117      0.1605
     91  C        125.5990    9.6140   19.5980 C.2   117  TRP117      0.2264
     92  O        124.6800    9.0380   20.1830 O.2   117  TRP117     -0.2867
     93  CB       126.2050   12.0410   19.4590 C.3   117  TRP117      0.0550
     94  CG       124.8410   12.5720   19.5720 C.ar  117  TRP117      0.0003
     95  CD1      123.8520   12.5010   18.6360 C.ar  117  TRP117      0.0946
     96  CD2      124.2460   13.1310   20.7430 C.ar  117  TRP117      0.0152
     97  NE1      122.6700   12.9690   19.1530 N.ar  117  TRP117     -0.2442
     98  CE2      122.8820   13.3630   20.4480 C.ar  117  TRP117      0.0810
     99  CE3      124.7290   13.4530   22.0190 C.ar  117  TRP117      0.0012
    100  CZ2      121.9910   13.9080   21.3880 C.ar  117  TRP117      0.0191
    101  CZ3      123.8450   13.9930   22.9500 C.ar  117  TRP117      0.0001
    102  CH2      122.4890   14.2130   22.6260 C.ar  117  TRP117      0.0015
    103  N        122.2920    7.7950   21.5860 N.3   121  MET121     -0.1245
    104  CA       121.0150    7.9970   20.9230 C.3   121  MET121      0.1570
    105  C        120.3450    6.6530   20.6710 C.2   121  MET121      0.2261
    106  O        119.1280    6.5710   20.5120 O.2   121  MET121     -0.2867
    107  CB       121.2180    8.7150   19.5980 C.3   121  MET121      0.0387
    108  CG       121.3940   10.2010   19.7320 C.3   121  MET121      0.0595
    109  SD       119.9250   10.9450   20.4260 S.3   121  MET121     -0.1393
    110  CE       118.7920   10.8030   19.0830 C.3   121  MET121      0.0692
    111  N        119.1700    5.1820   24.3430 N.3   124  TRP124     -0.1241
    112  CA       117.9860    5.9350   24.7010 C.3   124  TRP124      0.1605
    113  C        116.8720    5.5470   23.7850 C.2   124  TRP124      0.2264
    114  O        115.7490    5.3490   24.2180 O.2   124  TRP124     -0.2867
    115  CB       118.2560    7.4250   24.5720 C.3   124  TRP124      0.0550
    116  CG       119.3550    7.8610   25.4630 C.ar  124  TRP124      0.0003
    117  CD1      119.7460    7.2690   26.6330 C.ar  124  TRP124      0.0946
    118  CD2      120.1590    9.0300   25.3160 C.ar  124  TRP124      0.0152
    119  NE1      120.7390    8.0010   27.2240 N.ar  124  TRP124     -0.2442
    120  CE2      121.0120    9.0910   26.4380 C.ar  124  TRP124      0.0810
    121  CE3      120.2410   10.0390   24.3480 C.ar  124  TRP124      0.0012
    122  CZ2      121.9340   10.1280   26.6180 C.ar  124  TRP124      0.0191
    123  CZ3      121.1580   11.0680   24.5290 C.ar  124  TRP124      0.0001
    124  CH2      121.9900   11.1020   25.6540 C.ar  124  TRP124      0.0015
    125  N        115.8860    2.0310   25.0690 N.3   127  TYR127     -0.1227
    126  CA       115.1850    2.1350   26.3360 C.3   127  TYR127      0.1736
    127  C        113.7280    2.4810   26.0700 C.2   127  TYR127      0.2596
    128  O        112.8290    1.8250   26.5800 O.2   127  TYR127     -0.2718
    129  CB       115.8190    3.2180   27.2010 C.3   127  TYR127      0.0548
    130  CG       115.0500    3.4780   28.4700 C.ar  127  TYR127     -0.0200
    131  CD1      115.1870    2.6420   29.5800 C.ar  127  TYR127     -0.0009
    132  CD2      114.1380    4.5370   28.5470 C.ar  127  TYR127     -0.0009
    133  CE1      114.4280    2.8510   30.7420 C.ar  127  TYR127      0.0417
    134  CE2      113.3790    4.7560   29.6950 C.ar  127  TYR127      0.0417
    135  CZ       113.5220    3.9120   30.7890 C.ar  127  TYR127      0.1957
    136  OH       112.7490    4.1170   31.9170 O.3   127  TYR127     -0.2866
    137  N        113.5120    3.5130   25.2590 N.am  128  THR128     -0.1953
    138  CA       112.1750    3.9680   24.8880 C.3   128  THR128      0.1897
    139  C        111.3650    2.8310   24.2870 C.2   128  THR128      0.2313
    140  O        110.4200    2.3290   24.8950 O.2   128  THR128     -0.2863
    141  CB       112.2450    5.1150   23.8580 C.3   128  THR128      0.1794
    142  OG1      112.6250    6.3180   24.5260 O.3   128  THR128     -0.2208
    143  CG2      110.9090    5.3250   23.1780 C.3   128  THR128      0.0378
    144  N        110.0140    0.3890   26.6950 N.3   131  VAL131     -0.1245
    145  CA       108.8160    0.8170   27.3980 C.3   131  VAL131      0.1561
    146  C        107.5760    0.7950   26.4930 C.2   131  VAL131      0.2260
    147  O        106.4960    0.3840   26.9230 O.2   131  VAL131     -0.2867
    148  CB       109.0440    2.2060   27.9810 C.3   131  VAL131      0.0252
    149  CG1      107.8540    2.6400   28.7960 C.3   131  VAL131      0.0019
    150  CG2      110.2890    2.1710   28.8450 C.3   131  VAL131      0.0019
    151  N        112.1720   10.0770   19.4560 N.3   155  ASN155     -0.1240
    152  CA       113.5050   10.4070   19.9090 C.3   155  ASN155      0.1653
    153  C        114.2240   11.4210   19.0160 C.2   155  ASN155      0.2266
    154  O        114.7250   12.4250   19.5140 O.2   155  ASN155     -0.2867
    155  CB       114.3330    9.1250   20.0820 C.3   155  ASN155      0.1155
    156  CG       114.2730    8.5820   21.5130 C.2   155  ASN155      0.2627
    157  OD1      114.8160    9.1800   22.4430 O.2   155  ASN155     -0.2716
    158  ND2      113.6020    7.4510   21.6900 N.am  155  ASN155     -0.0877
    159  N        112.8970   14.9970   19.3720 N.3   158  ASN158     -0.1225
    160  CA       113.4540   15.6150   20.5550 C.3   158  ASN158      0.1785
    161  C        114.7530   16.3420   20.2360 C.2   158  ASN158      0.2597
    162  O        114.8530   17.5550   20.4000 O.2   158  ASN158     -0.2718
    163  CB       113.7620   14.5530   21.6130 C.3   158  ASN158      0.1169
    164  CG       112.5730   14.2270   22.5030 C.2   158  ASN158      0.2627
    165  OD1      112.7500   13.7470   23.6300 O.2   158  ASN158     -0.2716
    166  ND2      111.3630   14.4760   22.0090 N.am  158  ASN158     -0.0877
    167  N        115.7470   15.5740   19.7950 N.am  159  GLU159     -0.1979
    168  CA       117.0730   16.0900   19.4670 C.3   159  GLU159      0.1602
    169  C        116.9840   17.4310   18.7610 C.2   159  GLU159      0.2287
    170  O        117.4000   18.4570   19.3070 O.2   159  GLU159     -0.2864
    171  CB       117.8450   15.0860   18.5800 C.3   159  GLU159      0.0415
    172  CG       119.3200   15.4720   18.3210 C.3   159  GLU159      0.1163
    173  CD       120.0590   14.5610   17.3240 C.2   159  GLU159      0.3649
    174  OE1      120.6770   13.5510   17.7280 O.co2 159  GLU159     -0.2457
    175  OE2      120.0240   14.8670   16.1160 O.co2 159  GLU159     -0.2457
    176  N        114.4980   20.0400   20.8320 N.3   162  LEU162     -0.1231
    177  CA       115.1190   20.5300   22.0420 C.3   162  LEU162      0.1693
    178  C        116.3840   21.3180   21.7530 C.2   162  LEU162      0.2592
    179  O        116.8950   22.0220   22.6160 O.2   162  LEU162     -0.2718
    180  CB       115.4480   19.3650   22.9630 C.3   162  LEU162      0.0284
    181  CG       114.2810   18.8850   23.8080 C.3   162  LEU162      0.0019
    182  CD1      114.5450   17.4840   24.3070 C.3   162  LEU162      0.0001
    183  CD2      114.0820   19.8600   24.9430 C.3   162  LEU162      0.0001
    184  N        116.9030   21.1900   20.5430 N.am  163  PHE163     -0.1976
    185  CA       118.1080   21.9130   20.1950 C.3   163  PHE163      0.1639
    186  C        117.7600   23.3240   19.7580 C.2   163  PHE163      0.2290
    187  O        118.1380   24.2940   20.3980 O.2   163  PHE163     -0.2864
    188  CB       118.8560   21.2080   19.0690 C.3   163  PHE163      0.0560
    189  CG       120.1700   21.8560   18.7350 C.ar  163  PHE163     -0.0200
    190  CD1      121.2390   21.8060   19.6450 C.ar  163  PHE163     -0.0042
    191  CD2      120.3250   22.5870   17.5520 C.ar  163  PHE163     -0.0042
    192  CE1      122.4450   22.4770   19.3900 C.ar  163  PHE163     -0.0003
    193  CE2      121.5320   23.2670   17.2820 C.ar  163  PHE163     -0.0003
    194  CZ       122.5910   23.2120   18.2100 C.ar  163  PHE163     -0.0000
    195  N        117.4030   25.5630   22.4230 N.3   166  PHE166     -0.1241
    196  CA       118.5690   25.9990   23.1710 C.3   166  PHE166      0.1605
    197  C        119.4800   26.8860   22.3250 C.2   166  PHE166      0.2264
    198  O        120.2120   27.7300   22.8600 O.2   166  PHE166     -0.2867
    199  CB       119.3490   24.7680   23.6780 C.3   166  PHE166      0.0534
    200  CG       118.5630   23.8730   24.6300 C.ar  166  PHE166     -0.0203
    201  CD1      119.0260   22.5950   24.9410 C.ar  166  PHE166     -0.0042
    202  CD2      117.3690   24.3050   25.2190 C.ar  166  PHE166     -0.0042
    203  CE1      118.3140   21.7630   25.8150 C.ar  166  PHE166     -0.0003
    204  CE2      116.6540   23.4760   26.0950 C.ar  166  PHE166     -0.0003
    205  CZ       117.1310   22.2070   26.3900 C.ar  166  PHE166     -0.0000
    206  N        104.5700   12.9290   22.2230 N.3   186  TRP186     -0.1241
    207  CA       105.0090   11.5830   22.5310 C.3   186  TRP186      0.1605
    208  C        103.7480   10.8000   22.8680 C.2   186  TRP186      0.2264
    209  O        103.3040    9.9650   22.0870 O.2   186  TRP186     -0.2867
    210  CB       105.9820   11.5720   23.7130 C.3   186  TRP186      0.0550
    211  CG       107.4090   11.7300   23.2960 C.ar  186  TRP186      0.0003
    212  CD1      107.9370   12.7610   22.5930 C.ar  186  TRP186      0.0946
    213  CD2      108.4880   10.8110   23.5310 C.ar  186  TRP186      0.0152
    214  NE1      109.2760   12.5490   22.3690 N.ar  186  TRP186     -0.2442
    215  CE2      109.6390   11.3570   22.9340 C.ar  186  TRP186      0.0810
    216  CE3      108.5920    9.5790   24.1890 C.ar  186  TRP186      0.0012
    217  CZ2      110.8810   10.7160   22.9710 C.ar  186  TRP186      0.0191
    218  CZ3      109.8310    8.9430   24.2270 C.ar  186  TRP186      0.0001
    219  CH2      110.9550    9.5140   23.6220 C.ar  186  TRP186      0.0015
@<TRIPOS>BOND
     1    88    86   am
     2    86    87    2
     3    86    85    1
     4   175   173   ar
     5    83    82    2
     6    85    84    1
     7    82    81    1
     8   193   191   ar
     9   193   194   ar
    10   173   174   ar
    11   173   172    1
    12   191   189   ar
    13    81    84    1
    14    81    80    1
    15   194   192   ar
    16   172   171    1
    17   171   168    1
    18    95    97   ar
    19    95    94   ar
    20   189   188    1
    21   189   190   ar
    22   169   170    2
    23   169   168    1
    24   153   154    2
    25   153   152    1
    26   188   185    1
    27   110   109    1
    28    97    98   ar
    29   159   160    1
    30   192   190   ar
    31   151   152    1
    32    93    94    1
    33    93    90    1
    34   168   167    1
    35    94    96   ar
    36   107   108    1
    37   107   104    1
    38    91    92    2
    39    91    90    1
    40   108   109    1
    41   186   185    1
    42   186   187    2
    43   167   161   am
    44   152   155    1
    45   155   156    1
    46   185   184    1
    47   161   162    2
    48   161   160    1
    49    90    89    1
    50    98    96   ar
    51    98   100   ar
    52   106   105    2
    53   184   178   am
    54   160   163    1
    55   105   104    1
    56    96    99   ar
    57   176   177    1
    58   104   103    1
    59    76    75    2
    60   100   102   ar
    61   156   158   am
    62   156   157    2
    63   163   164    1
    64   178   177    1
    65   178   179    2
    66   166   164   am
    67    99   101   ar
    68   177   180    1
    69   209   208    2
    70   206   207    1
    71   197   198    2
    72   197   196    1
    73    75    74    1
    74   214   212   ar
    75   214   215   ar
    76   195   196    1
    77   164   165    2
    78   207   208    1
    79   207   210    1
    80   212   211   ar
    81   102   101   ar
    82   215   217   ar
    83   215   213   ar
    84   180   181    1
    85   217   219   ar
    86   196   199    1
    87   143   141    1
    88    79    77    1
    89   211   213   ar
    90   211   210    1
    91   213   216   ar
    92   219   218   ar
    93   199   200    1
    94    74    77    1
    95    74    73    1
    96   113   114    2
    97   113   112    1
    98   181   182    1
    99   181   183    1
   100   141   142    1
   101   141   138    1
   102    77    78    1
   103   216   218   ar
   104   139   138    1
   105   139   140    2
   106   111   112    1
   107   121   123   ar
   108   121   118   ar
   109   123   124   ar
   110   115   112    1
   111   115   116    1
   112   200   201   ar
   113   200   202   ar
   114   138   137    1
   115   201   203   ar
   116   125   126    1
   117   202   204   ar
   118   137   127   am
   119   118   116   ar
   120   118   120   ar
   121   116   117   ar
   122   124   122   ar
   123   203   205   ar
   124    38    37   ar
   125    38    36   ar
   126    37    35   ar
   127   127   126    1
   128   127   128    2
   129    50    48    1
   130   204   205   ar
   131    71    69   ar
   132    71    72   ar
   133   126   129    1
   134    69    67   ar
   135   120   122   ar
   136   120   119   ar
   137   146   147    2
   138   146   145    1
   139    49    47    1
   140    36    34   ar
   141    72    70   ar
   142    58    60   ar
   143    58    56   ar
   144   117   119   ar
   145    35    32   ar
   146    60    61   ar
   147   144   145    1
   148    67    66    1
   149    67    68   ar
   150    48    47    1
   151    66    63    1
   152    70    68   ar
   153   129   130    1
   154    55    56    1
   155    55    52    1
   156    56    57   ar
   157    34    32   ar
   158    34    33   ar
   159   145   148    1
   160    32    30   ar
   161    61    59   ar
   162    47    44    1
   163   148   149    1
   164   148   150    1
   165    65    64    2
   166    57    59   ar
   167    33    31   ar
   168    30    29    1
   169    30    31   ar
   170    63    64    1
   171    63    62    1
   172    44    45    1
   173    44    43    1
   174    54    53    2
   175   130   132   ar
   176   130   131   ar
   177   132   134   ar
   178    53    52    1
   179    52    51    1
   180    29    26    1
   181    46    45    2
   182    43    41   am
   183   131   133   ar
   184   134   135   ar
   185     7     6    1
   186    28    27    2
   187    26    27    1
   188    26    25    1
   189    41    42    2
   190    41    40    1
   191   133   135   ar
   192   135   136    1
   193     8     6    1
   194    25    19   am
   195    40    39    1
   196     6     5    1
   197     5     2    1
   198    20    19    2
   199    19    18    1
   200    23    22    1
   201    23    24    1
   202    22    21    1
   203    21    18    1
   204     2     1    1
   205     2     3    1
   206    18    17    1
   207     3     4    2
   208    15    14    1
   209    13    14    1
   210    13    10    1
   211    14    16    1
   212    11    12    2
   213    11    10    1
   214    10     9    1
