@<TRIPOS>MOLECULE
tmp/1u9oA00.pdb
 219 214 0 0 0
SMALL
GASTEIGER

@<TRIPOS>ATOM
      1  N        103.4270   21.2050   -2.9660 N.3    66  LEU66      -0.1245
      2  CA       102.5870   21.3210   -1.7970 C.3    66  LEU66       0.1561
      3  C        101.5510   22.3750   -2.0860 C.2    66  LEU66       0.2260
      4  O        100.3570   22.1720   -1.8980 O.2    66  LEU66      -0.2867
      5  CB       103.4380   21.7440   -0.6150 C.3    66  LEU66       0.0270
      6  CG       102.6840   22.0890    0.6520 C.3    66  LEU66       0.0019
      7  CD1      101.8200   20.9180    1.0490 C.3    66  LEU66       0.0001
      8  CD2      103.6680   22.4210    1.7420 C.3    66  LEU66       0.0001
      9  N         98.0110   21.7220   -3.6760 N.3    69  LEU69      -0.1245
     10  CA        97.0520   20.8500   -3.0170 C.3    69  LEU69       0.1561
     11  C         95.9470   21.7460   -2.4940 C.2    69  LEU69       0.2260
     12  O         94.8740   21.2740   -2.1210 O.2    69  LEU69      -0.2867
     13  CB        97.6760   20.0810   -1.8520 C.3    69  LEU69       0.0270
     14  CG        98.7850   19.0750   -2.1360 C.3    69  LEU69       0.0019
     15  CD1       98.7660   18.0080   -1.0590 C.3    69  LEU69       0.0001
     16  CD2       98.5860   18.4430   -3.4920 C.3    69  LEU69       0.0001
     17  N         94.7240   12.8610    3.9190 N.3    81  MET81      -0.1230
     18  CA        94.9880   14.2440    3.5460 C.3    81  MET81       0.1702
     19  C         96.3820   14.6980    4.0110 C.2    81  MET81       0.2592
     20  O         96.9720   15.6230    3.4470 O.2    81  MET81      -0.2718
     21  CB        93.9180   15.1510    4.1520 C.3    81  MET81       0.0401
     22  CG        94.0490   16.6080    3.7700 C.3    81  MET81       0.0596
     23  SD        93.4890   17.6250    5.1310 S.3    81  MET81      -0.1393
     24  CE        91.7230   17.1970    5.1540 C.3    81  MET81       0.0692
     25  N         96.9090   14.0440    5.0370 N.am   82  TRP82      -0.1976
     26  CA        98.2150   14.4100    5.5480 C.3    82  TRP82       0.1640
     27  C         99.3200   13.6170    4.8850 C.2    82  TRP82       0.2290
     28  O        100.3690   14.1690    4.5660 O.2    82  TRP82      -0.2864
     29  CB        98.2570   14.2360    7.0640 C.3    82  TRP82       0.0576
     30  CG        97.2780   15.1360    7.7510 C.ar   82  TRP82       0.0006
     31  CD1       95.9760   14.8600    8.0410 C.ar   82  TRP82       0.0946
     32  CD2       97.4990   16.4900    8.1590 C.ar   82  TRP82       0.0152
     33  NE1       95.3670   15.9570    8.6030 N.ar   82  TRP82      -0.2442
     34  CE2       96.2810   16.9710    8.6910 C.ar   82  TRP82       0.0810
     35  CE3       98.6090   17.3460    8.1290 C.ar   82  TRP82       0.0012
     36  CZ2       96.1400   18.2720    9.1850 C.ar   82  TRP82       0.0191
     37  CZ3       98.4690   18.6380    8.6180 C.ar   82  TRP82       0.0001
     38  CH2       97.2420   19.0870    9.1450 C.ar   82  TRP82       0.0015
     39  N        100.5390   15.1080    1.8260 N.3    85  GLY85      -0.1210
     40  CA       101.2610   16.3480    2.0550 C.3    85  GLY85       0.1956
     41  C        102.6690   16.0650    2.5330 C.2    85  GLY85       0.2611
     42  O        103.6490   16.6050    2.0110 O.2    85  GLY85      -0.2717
     43  N        102.7690   15.2180    3.5470 N.am   86  ILE86      -0.1979
     44  CA       104.0620   14.8480    4.0680 C.3    86  ILE86       0.1595
     45  C        104.7800   14.0760    2.9670 C.2    86  ILE86       0.2287
     46  O        106.0060   14.0400    2.9080 O.2    86  ILE86      -0.2864
     47  CB       103.9120   13.9740    5.3150 C.3    86  ILE86       0.0276
     48  CG1      103.4460   14.8370    6.4800 C.3    86  ILE86       0.0022
     49  CG2      105.2200   13.2920    5.6440 C.3    86  ILE86       0.0022
     50  CD1      103.4680   14.1200    7.8100 C.3    86  ILE86       0.0001
     51  N        107.3500   15.8820    0.5250 N.3    89  PHE89      -0.1241
     52  CA       108.7420   16.0800    0.9080 C.3    89  PHE89       0.1605
     53  C        109.5500   14.8050    0.8140 C.2    89  PHE89       0.2264
     54  O        110.6080   14.7800    0.2000 O.2    89  PHE89      -0.2867
     55  CB       108.8180   16.6880    2.3120 C.3    89  PHE89       0.0534
     56  CG       108.2010   18.0490    2.3920 C.ar   89  PHE89      -0.0203
     57  CD1      106.8340   18.2000    2.5620 C.ar   89  PHE89      -0.0042
     58  CD2      108.9690   19.1810    2.2010 C.ar   89  PHE89      -0.0042
     59  CE1      106.2490   19.4630    2.5350 C.ar   89  PHE89      -0.0003
     60  CE2      108.3840   20.4490    2.1720 C.ar   89  PHE89      -0.0003
     61  CZ       107.0300   20.5880    2.3370 C.ar   89  PHE89      -0.0000
     62  N        112.5120   15.4080   -1.8180 N.3    93  PHE93      -0.1241
     63  CA       113.8740   15.2450   -1.3180 C.3    93  PHE93       0.1605
     64  C        114.3590   13.7970   -1.4660 C.2    93  PHE93       0.2264
     65  O        115.5170   13.5490   -1.7770 O.2    93  PHE93      -0.2867
     66  CB       113.9760   15.7350    0.1420 C.3    93  PHE93       0.0534
     67  CG       113.7450   17.2280    0.3000 C.ar   93  PHE93      -0.0203
     68  CD1      112.4780   17.7290    0.5940 C.ar   93  PHE93      -0.0042
     69  CD2      114.7820   18.1360    0.0710 C.ar   93  PHE93      -0.0042
     70  CE1      112.2470   19.1070    0.6520 C.ar   93  PHE93      -0.0003
     71  CE2      114.5560   19.5240    0.1260 C.ar   93  PHE93      -0.0003
     72  CZ       113.2890   20.0060    0.4150 C.ar   93  PHE93      -0.0000
     73  N        120.2830   16.8620   -1.2420 N.3   100  THR100     -0.1218
     74  CA       119.9120   16.9940    0.1370 C.3   100  THR100      0.1862
     75  C        121.1240   16.8020    1.0280 C.2   100  THR100      0.2287
     76  O        121.4300   17.6700    1.8390 O.2   100  THR100     -0.2866
     77  CB       118.8530   15.9900    0.4850 C.3   100  THR100      0.1770
     78  OG1      117.7300   16.1980   -0.3700 O.3   100  THR100     -0.2211
     79  CG2      118.4160   16.1620    1.9190 C.3   100  THR100      0.0375
     80  N        123.0340   19.9880    2.9930 N.3   104  GLN104     -0.1245
     81  CA       123.0420   19.8200    4.4370 C.3   104  GLN104      0.1566
     82  C        124.4230   20.2140    4.9740 C.2   104  GLN104      0.2260
     83  O        124.5590   21.1560    5.7580 O.2   104  GLN104     -0.2867
     84  CB       122.7360   18.3640    4.7890 C.3   104  GLN104      0.0367
     85  CG       122.4220   18.1230    6.2460 C.3   104  GLN104      0.0905
     86  CD       121.2270   18.9310    6.6990 C.2   104  GLN104      0.2608
     87  OE1      120.2400   19.0830    5.9580 O.2   104  GLN104     -0.2717
     88  NE2      121.2970   19.4520    7.9220 N.am  104  GLN104     -0.0878
     89  N        117.0150   27.4900    3.7590 N.3   117  TRP117     -0.1241
     90  CA       116.2430   26.4480    4.3900 C.3   117  TRP117      0.1605
     91  C        115.3560   27.0020    5.4790 C.2   117  TRP117      0.2264
     92  O        114.1870   26.6220    5.6220 O.2   117  TRP117     -0.2867
     93  CB       117.1620   25.4040    4.9930 C.3   117  TRP117      0.0550
     94  CG       116.4200   24.2080    5.4110 C.ar  117  TRP117      0.0003
     95  CD1      116.2660   23.7440    6.6680 C.ar  117  TRP117      0.0946
     96  CD2      115.7360   23.2980    4.5560 C.ar  117  TRP117      0.0152
     97  NE1      115.5310   22.5920    6.6600 N.ar  117  TRP117     -0.2442
     98  CE2      115.1960   22.2930    5.3690 C.ar  117  TRP117      0.0810
     99  CE3      115.5360   23.2300    3.1710 C.ar  117  TRP117      0.0012
    100  CZ2      114.4640   21.2280    4.8530 C.ar  117  TRP117      0.0191
    101  CZ3      114.8060   22.1700    2.6520 C.ar  117  TRP117      0.0001
    102  CH2      114.2830   21.1830    3.4910 C.ar  117  TRP117      0.0015
    103  N        111.3370   26.4780    5.7050 N.3   121  MET121     -0.1245
    104  CA       110.8560   25.7560    6.8620 C.3   121  MET121      0.1570
    105  C        109.7880   26.5600    7.5970 C.2   121  MET121      0.2261
    106  O        108.8240   25.9960    8.0970 O.2   121  MET121     -0.2867
    107  CB       112.0290   25.4440    7.7730 C.3   121  MET121      0.0387
    108  CG       112.8980   24.3360    7.2540 C.3   121  MET121      0.0595
    109  SD       112.0450   22.7890    7.4810 S.3   121  MET121     -0.1393
    110  CE       112.1110   22.6390    9.2410 C.3   121  MET121      0.0692
    111  N        106.6190   26.4430    5.5850 N.3   124  TRP124     -0.1241
    112  CA       106.0340   25.1090    5.6680 C.3   124  TRP124      0.1605
    113  C        105.4110   24.8770    7.0380 C.2   124  TRP124      0.2264
    114  O        104.3410   24.2670    7.1430 O.2   124  TRP124     -0.2867
    115  CB       107.0870   24.0390    5.3710 C.3   124  TRP124      0.0550
    116  CG       107.5140   24.0780    3.9410 C.ar  124  TRP124      0.0003
    117  CD1      106.7650   24.4930    2.8850 C.ar  124  TRP124      0.0946
    118  CD2      108.7770   23.6790    3.4030 C.ar  124  TRP124      0.0152
    119  NE1      107.4760   24.3810    1.7270 N.ar  124  TRP124     -0.2442
    120  CE2      108.7170   23.8810    2.0140 C.ar  124  TRP124      0.0810
    121  CE3      109.9560   23.1710    3.9590 C.ar  124  TRP124      0.0012
    122  CZ2      109.7940   23.5930    1.1710 C.ar  124  TRP124      0.0191
    123  CZ3      111.0240   22.8870    3.1210 C.ar  124  TRP124      0.0001
    124  CH2      110.9350   23.0990    1.7440 C.ar  124  TRP124      0.0015
    125  N        102.2120   26.9660    7.0200 N.3   127  TYR127     -0.1227
    126  CA       101.1830   26.2340    6.3010 C.3   127  TYR127      0.1736
    127  C        100.5920   25.1650    7.2070 C.2   127  TYR127      0.2596
    128  O         99.3810   25.0280    7.2900 O.2   127  TYR127     -0.2718
    129  CB       101.7370   25.5940    5.0140 C.3   127  TYR127      0.0548
    130  CG       100.6480   24.9480    4.1840 C.ar  127  TYR127     -0.0200
    131  CD1       99.7930   25.7200    3.4020 C.ar  127  TYR127     -0.0009
    132  CD2      100.3680   23.5810    4.3130 C.ar  127  TYR127     -0.0009
    133  CE1       98.6620   25.1500    2.7780 C.ar  127  TYR127      0.0417
    134  CE2       99.2460   22.9940    3.7000 C.ar  127  TYR127      0.0417
    135  CZ        98.3850   23.7830    2.9380 C.ar  127  TYR127      0.1957
    136  OH        97.2230   23.2270    2.4000 O.3   127  TYR127     -0.2866
    137  N        101.4290   24.4140    7.9040 N.am  128  THR128     -0.1953
    138  CA       100.8740   23.3950    8.7770 C.3   128  THR128      0.1897
    139  C         99.9050   24.0620    9.7520 C.2   128  THR128      0.2313
    140  O         98.7300   23.6900    9.8390 O.2   128  THR128     -0.2863
    141  CB       101.9580   22.6560    9.5760 C.3   128  THR128      0.1794
    142  OG1      102.8860   22.0340    8.6770 O.3   128  THR128     -0.2208
    143  CG2      101.3170   21.5920   10.4480 C.3   128  THR128      0.0378
    144  N         96.5020   24.9340    8.6200 N.3   131  VAL131     -0.1245
    145  CA        95.6090   23.7880    8.5740 C.3   131  VAL131      0.1561
    146  C         95.1650   23.3590    9.9470 C.2   131  VAL131      0.2260
    147  O         93.9860   23.4580   10.2830 O.2   131  VAL131     -0.2867
    148  CB        96.2660   22.6010    7.9080 C.3   131  VAL131      0.0252
    149  CG1       95.3950   21.3850    8.0490 C.3   131  VAL131      0.0019
    150  CG2       96.4910   22.9110    6.4530 C.3   131  VAL131      0.0019
    151  N        107.0950   19.4670   12.1740 N.3   155  ASN155     -0.1240
    152  CA       107.9670   19.8550   11.0900 C.3   155  ASN155      0.1653
    153  C        109.4150   19.6330   11.4990 C.2   155  ASN155      0.2266
    154  O        110.2110   19.1470   10.7160 O.2   155  ASN155     -0.2867
    155  CB       107.7400   21.3260   10.7340 C.3   155  ASN155      0.1155
    156  CG       106.5490   21.5320    9.8180 C.2   155  ASN155      0.2627
    157  OD1      106.6170   21.2670    8.6170 O.2   155  ASN155     -0.2716
    158  ND2      105.4500   22.0040   10.3810 N.am  155  ASN155     -0.0877
    159  N        110.1050   15.9510   10.9810 N.3   158  ASN158     -0.1225
    160  CA       110.2420   15.4820    9.6040 C.3   158  ASN158      0.1785
    161  C        111.5530   15.9480    8.9530 C.2   158  ASN158      0.2597
    162  O        112.0280   15.3510    7.9830 O.2   158  ASN158     -0.2718
    163  CB       109.0520   15.9410    8.7470 C.3   158  ASN158      0.1169
    164  CG       107.7190   15.3290    9.1910 C.2   158  ASN158      0.2627
    165  OD1      106.7300   15.3840    8.4550 O.2   158  ASN158     -0.2716
    166  ND2      107.6830   14.7610   10.3950 N.am  158  ASN158     -0.0877
    167  N        112.1460   17.0170    9.4680 N.am  159  GLU159     -0.1979
    168  CA       113.3940   17.4870    8.8970 C.3   159  GLU159      0.1602
    169  C        114.4410   16.4850    9.2780 C.2   159  GLU159      0.2287
    170  O        114.8890   15.6900    8.4670 O.2   159  GLU159     -0.2864
    171  CB       113.7990   18.8370    9.4750 C.3   159  GLU159      0.0415
    172  CG       115.1090   19.3330    8.9020 C.3   159  GLU159      0.1163
    173  CD       115.6460   20.5850    9.5770 C.2   159  GLU159      0.3649
    174  OE1      115.0800   21.6820    9.3720 O.co2 159  GLU159     -0.2457
    175  OE2      116.6470   20.4710   10.3170 O.co2 159  GLU159     -0.2457
    176  N        113.5470   12.4580    8.0830 N.3   162  LEU162     -0.1231
    177  CA       113.6380   12.0740    6.6970 C.3   162  LEU162      0.1693
    178  C        115.1030   12.1140    6.3330 C.2   162  LEU162      0.2592
    179  O        115.6290   11.1710    5.7740 O.2   162  LEU162     -0.2718
    180  CB       112.8250   13.0130    5.8140 C.3   162  LEU162      0.0284
    181  CG       111.3090   12.8190    5.9400 C.3   162  LEU162      0.0019
    182  CD1      110.5920   13.9590    5.2630 C.3   162  LEU162      0.0001
    183  CD2      110.8930   11.5060    5.3280 C.3   162  LEU162      0.0001
    184  N        115.7930   13.1850    6.6750 N.am  163  PHE163     -0.1976
    185  CA       117.2030   13.2220    6.3400 C.3   163  PHE163      0.1639
    186  C        117.9030   12.0130    6.9540 C.2   163  PHE163      0.2290
    187  O        118.4730   11.1870    6.2490 O.2   163  PHE163     -0.2864
    188  CB       117.8680   14.4980    6.8520 C.3   163  PHE163      0.0560
    189  CG       119.3200   14.6200    6.4500 C.ar  163  PHE163     -0.0200
    190  CD1      119.6690   15.0680    5.1760 C.ar  163  PHE163     -0.0042
    191  CD2      120.3340   14.2670    7.3360 C.ar  163  PHE163     -0.0042
    192  CE1      120.9950   15.1610    4.8010 C.ar  163  PHE163     -0.0003
    193  CE2      121.6580   14.3590    6.9600 C.ar  163  PHE163     -0.0003
    194  CZ       121.9880   14.8060    5.6930 C.ar  163  PHE163     -0.0000
    195  N        117.2910    9.2550    4.5980 N.3   166  PHE166     -0.1241
    196  CA       117.8940    9.3400    3.2620 C.3   166  PHE166      0.1605
    197  C        119.3940    9.1390    3.3250 C.2   166  PHE166      0.2264
    198  O        119.9610    8.3150    2.5990 O.2   166  PHE166     -0.2867
    199  CB       117.6320   10.7030    2.6240 C.3   166  PHE166      0.0534
    200  CG       116.2100   10.9290    2.2600 C.ar  166  PHE166     -0.0203
    201  CD1      115.7290   12.2170    2.0860 C.ar  166  PHE166     -0.0042
    202  CD2      115.3300    9.8540    2.1360 C.ar  166  PHE166     -0.0042
    203  CE1      114.3850   12.4390    1.8020 C.ar  166  PHE166     -0.0003
    204  CE2      113.9820   10.0600    1.8500 C.ar  166  PHE166     -0.0003
    205  CZ       113.5060   11.3550    1.6860 C.ar  166  PHE166     -0.0000
    206  N        102.1110   12.6300   13.1760 N.3   186  TRP186     -0.1241
    207  CA       101.4590   13.8930   12.8510 C.3   186  TRP186      0.1605
    208  C         99.9740   13.8450   13.1990 C.2   186  TRP186      0.2264
    209  O         99.4840   14.6840   13.9470 O.2   186  TRP186     -0.2867
    210  CB       101.6260   14.2160   11.3650 C.3   186  TRP186      0.0550
    211  CG       102.8850   14.9270   11.0480 C.ar  186  TRP186      0.0003
    212  CD1      104.1530   14.5180   11.3300 C.ar  186  TRP186      0.0946
    213  CD2      103.0090   16.1750   10.3650 C.ar  186  TRP186      0.0152
    214  NE1      105.0660   15.4330   10.8630 N.ar  186  TRP186     -0.2442
    215  CE2      104.3890   16.4610   10.2620 C.ar  186  TRP186      0.0810
    216  CE3      102.0880   17.0810    9.8220 C.ar  186  TRP186      0.0012
    217  CZ2      104.8700   17.6180    9.6370 C.ar  186  TRP186      0.0191
    218  CZ3      102.5670   18.2340    9.1970 C.ar  186  TRP186      0.0001
    219  CH2      103.9450   18.4890    9.1110 C.ar  186  TRP186      0.0015
@<TRIPOS>BOND
     1     9    10    1
     2    16    14    1
     3    10    11    1
     4    10    13    1
     5     1     2    1
     6    11    12    2
     7    14    13    1
     8    14    15    1
     9     3     4    2
    10     3     2    1
    11    62    63    1
    12     2     5    1
    13    65    64    2
    14    64    63    1
    15    63    66    1
    16    73    74    1
    17     5     6    1
    18    78    77    1
    19    69    71   ar
    20    69    67   ar
    21    71    72   ar
    22    74    77    1
    23    74    75    1
    24    66    67    1
    25    54    53    2
    26    67    68   ar
    27    72    70   ar
    28    77    79    1
    29    51    52    1
    30    68    70   ar
    31     6     7    1
    32     6     8    1
    33    53    52    1
    34    52    55    1
    35    75    76    2
    36   122   124   ar
    37   122   120   ar
    38   205   203   ar
    39   205   204   ar
    40   119   120   ar
    41   119   117   ar
    42   124   123   ar
    43   203   201   ar
    44    39    40    1
    45   204   202   ar
    46    42    41    2
    47   120   118   ar
    48    40    41    1
    49   201   200   ar
    50   202   200   ar
    51    60    58   ar
    52    60    61   ar
    53    58    56   ar
    54   200   199    1
    55    55    56    1
    56    61    59   ar
    57    56    57   ar
    58   136   135    1
    59    41    43   am
    60    59    57   ar
    61   198   197    2
    62   199   196    1
    63   101    99   ar
    64   101   102   ar
    65   133   135   ar
    66   133   131   ar
    67   117   116   ar
    68    46    45    2
    69   135   134   ar
    70    45    44    1
    71    80    81    1
    72   123   121   ar
    73    99    96   ar
    74   196   197    1
    75   196   195    1
    76   131   130   ar
    77   118   116   ar
    78   118   121   ar
    79    20    19    2
    80   102   100   ar
    81    18    17    1
    82    18    19    1
    83    18    21    1
    84    43    44    1
    85   134   132   ar
    86    89    90    1
    87    22    21    1
    88    22    23    1
    89   116   115    1
    90    19    25   am
    91    44    47    1
    92   130   132   ar
    93   130   129    1
    94    90    93    1
    95    90    91    1
    96    81    84    1
    97    81    82    1
    98    96    98   ar
    99    96    94   ar
   100    28    27    2
   101    84    85    1
   102   192   190   ar
   103   192   194   ar
   104   100    98   ar
   105    27    26    1
   106    82    83    2
   107    93    94    1
   108   129   126    1
   109    25    26    1
   110    23    24    1
   111   190   189   ar
   112   182   181    1
   113    47    49    1
   114    47    48    1
   115   183   181    1
   116    98    97   ar
   117   115   112    1
   118    94    95   ar
   119    91    92    2
   120    26    29    1
   121   111   112    1
   122   112   113    1
   123   194   193   ar
   124   103   104    1
   125   179   178    2
   126   180   181    1
   127   180   177    1
   128    87    86    2
   129    85    86    1
   130   187   186    2
   131   126   125    1
   132   126   127    1
   133   178   184   am
   134   178   177    1
   135   185   184    1
   136   185   188    1
   137   185   186    1
   138   189   188    1
   139   189   191   ar
   140   150   148    1
   141    48    50    1
   142    97    95   ar
   143   177   176    1
   144    86    88   am
   145   104   105    1
   146   104   107    1
   147   193   191   ar
   148   113   114    2
   149    29    30    1
   150   127   128    2
   151   127   137   am
   152   108   109    1
   153   108   107    1
   154   109   110    1
   155   105   106    2
   156    30    31   ar
   157    30    32   ar
   158   137   138    1
   159   148   149    1
   160   148   145    1
   161   162   161    2
   162    31    33   ar
   163    35    32   ar
   164    35    37   ar
   165    32    34   ar
   166   165   164    2
   167   170   169    2
   168   145   144    1
   169   145   146    1
   170    33    34   ar
   171   157   156    2
   172    37    38   ar
   173   142   141    1
   174    34    36   ar
   175   163   164    1
   176   163   160    1
   177   138   141    1
   178   138   139    1
   179   168   169    1
   180   168   167    1
   181   168   171    1
   182   172   171    1
   183   172   173    1
   184   161   167   am
   185   161   160    1
   186   219   218   ar
   187   219   217   ar
   188    38    36   ar
   189   164   166   am
   190   218   216   ar
   191   174   173   ar
   192   141   143    1
   193   173   175   ar
   194   160   159    1
   195   217   215   ar
   196   139   140    2
   197   156   158   am
   198   156   155    1
   199   216   213   ar
   200   146   147    2
   201   215   213   ar
   202   215   214   ar
   203   213   211   ar
   204   154   153    2
   205   155   152    1
   206   214   212   ar
   207   211   212   ar
   208   211   210    1
   209   152   153    1
   210   152   151    1
   211   210   207    1
   212   207   206    1
   213   207   208    1
   214   208   209    2
