@<TRIPOS>MOLECULE
tmp/1u9qA00.pdb
 163 156 0 0 0
SMALL
GASTEIGER

@<TRIPOS>ATOM
      1  N         14.8330    8.3840   11.5930 N.3    19  GLN19      -0.1245
      2  CA        14.3700    9.3110   10.6040 C.3    19  GLN19       0.1566
      3  C         14.9230   10.7070   10.7580 C.2    19  GLN19       0.2260
      4  O         15.0410   11.4520    9.7620 O.2    19  GLN19      -0.2867
      5  CB        12.8310    9.2910   10.4930 C.3    19  GLN19       0.0367
      6  CG        12.0800    9.8280   11.6140 C.3    19  GLN19       0.0905
      7  CD        10.5830    9.7590   11.3860 C.2    19  GLN19       0.2608
      8  OE1        9.9380    8.6800   11.4770 O.2    19  GLN19      -0.2717
      9  NE2       10.0040   10.9100   11.1600 N.am   19  GLN19      -0.0878
     10  N         10.3380   14.4180    7.7410 N.3    23  GLY23      -0.1225
     11  CA         9.0000   13.7690    7.9090 C.3    23  GLY23       0.1811
     12  C          8.8910   12.5040    7.0290 C.2    23  GLY23       0.2280
     13  O          7.9590   12.3460    6.2580 O.2    23  GLY23      -0.2866
     14  N          8.5910    9.2140    7.9090 N.3    25  CYS25      -0.1221
     15  CA         8.0630    8.0200    8.5810 C.3    25  CYS25       0.1808
     16  C          7.4950    6.9920    7.5670 C.2    25  CYS25       0.2601
     17  O          7.7730    5.7940    7.6200 O.2    25  CYS25      -0.2717
     18  CB         6.9710    8.4180    9.5530 C.3    25  CYS25       0.0970
     19  SG         5.6720    9.4940    8.7920 S.3    25  CYS25      -0.0800
     20  N          6.7390    7.5050    6.6090 N.am   26  TRP26      -0.1976
     21  CA         6.1870    6.7160    5.4960 C.3    26  TRP26       0.1640
     22  C          7.2410    5.8140    4.8130 C.2    26  TRP26       0.2290
     23  O          6.9550    4.6780    4.4520 O.2    26  TRP26      -0.2864
     24  CB         5.5090    7.6550    4.5220 C.3    26  TRP26       0.0576
     25  CG         6.4550    8.6040    3.8680 C.ar   26  TRP26       0.0006
     26  CD1        6.9020    9.8040    4.3570 C.ar   26  TRP26       0.0946
     27  CD2        7.1100    8.4140    2.5800 C.ar   26  TRP26       0.0152
     28  NE1        7.7840   10.3840    3.4350 N.ar   26  TRP26      -0.2442
     29  CE2        7.9080    9.5390    2.3460 C.ar   26  TRP26       0.0810
     30  CE3        7.0350    7.4110    1.5830 C.ar   26  TRP26       0.0012
     31  CZ2        8.6910    9.6620    1.1800 C.ar   26  TRP26       0.0191
     32  CZ3        7.7730    7.5490    0.4560 C.ar   26  TRP26       0.0001
     33  CH2        8.6010    8.6580    0.2540 C.ar   26  TRP26       0.0015
     34  N          6.1050   10.5070   -6.2660 N.3    59  THR59      -0.1203
     35  CA         4.6530   10.3780   -6.0690 C.3    59  THR59       0.1994
     36  C          4.3430   10.5680   -4.5950 C.2    59  THR59       0.2618
     37  O          3.1640   10.6380   -4.1650 O.2    59  THR59      -0.2717
     38  CB         4.0940    9.0380   -6.5550 C.3    59  THR59       0.1784
     39  OG1        4.3160    8.0880   -5.5360 O.3    59  THR59      -0.2211
     40  CG2        4.7460    8.5490   -7.8580 C.3    59  THR59       0.0376
     41  N          5.4080   10.7910   -3.8440 N.am   60  ASP60      -0.1959
     42  CA         5.3380   11.1630   -2.4140 C.3    60  ASP60       0.1840
     43  C          6.1000   12.4740   -2.1850 C.2    60  ASP60       0.2622
     44  O          6.6890   12.9930   -3.1150 O.2    60  ASP60      -0.2715
     45  CB         5.8740   10.0310   -1.5650 C.3    60  ASP60       0.1450
     46  CG         4.8550    8.9200   -1.4040 C.2    60  ASP60       0.3671
     47  OD1        3.7640    9.1720   -0.8930 O.co2  60  ASP60      -0.2456
     48  OD2        5.0970    7.8040   -1.8210 O.co2  60  ASP60      -0.2456
     49  N          6.0960   13.0160   -0.9700 N.am   61  SER61      -0.1950
     50  CA         6.5440   14.4140   -0.7710 C.3    61  SER61       0.1924
     51  C          7.8210   14.5690    0.0630 C.2    61  SER61       0.2314
     52  O          7.9890   15.6020    0.7470 O.2    61  SER61      -0.2863
     53  CB         5.4080   15.2380   -0.1450 C.3    61  SER61       0.2116
     54  OG         4.4540   15.6360   -1.1070 O.3    61  SER61      -0.2180
     55  N          8.2750   16.0390    3.7050 N.3    64  SER64      -0.1202
     56  CA         6.9770   16.6130    4.0610 C.3    64  SER64       0.2020
     57  C          5.9170   15.5680    4.3140 C.2    64  SER64       0.2619
     58  O          4.9670   15.8250    5.0210 O.2    64  SER64      -0.2717
     59  CB         6.4590   17.5200    2.9730 C.3    64  SER64       0.2103
     60  OG         7.3520   18.5650    2.7560 O.3    64  SER64      -0.2182
     61  N          6.0750   14.3900    3.7270 N.am   65  GLY65      -0.1942
     62  CA         5.1240   13.3250    3.9530 C.3    65  GLY65       0.2014
     63  C          4.9990   12.4010    2.7710 C.2    65  GLY65       0.2639
     64  O          5.6980   12.5770    1.7800 O.2    65  GLY65      -0.2714
     65  N          4.0910   11.4240    2.8960 N.am   66  GLY66      -0.1939
     66  CA         3.9360   10.3780    1.9140 C.3    66  GLY66       0.2014
     67  C          3.0670    9.2630    2.4320 C.2    66  GLY66       0.2639
     68  O          2.7890    9.1780    3.6400 O.2    66  GLY66      -0.2714
     69  N          2.6290    8.4090    1.5130 N.am   67  LEU67      -0.1963
     70  CA         1.8050    7.2690    1.8380 C.3    67  LEU67       0.1728
     71  C          2.5620    5.9740    1.5740 C.2    67  LEU67       0.2616
     72  O          3.1090    5.7820    0.5230 O.2    67  LEU67      -0.2715
     73  CB         0.4840    7.3090    1.0470 C.3    67  LEU67       0.0311
     74  CG        -0.4310    8.5720    1.0870 C.3    67  LEU67       0.0022
     75  CD1       -1.7170    8.3460    0.2440 C.3    67  LEU67       0.0001
     76  CD2       -0.7910    9.0400    2.5360 C.3    67  LEU67       0.0001
     77  N          2.5490    5.0610    2.5270 N.am   68  MET68      -0.1977
     78  CA         3.1460    3.7390    2.3150 C.3    68  MET68       0.1605
     79  C          2.6620    3.0860    1.0380 C.2    68  MET68       0.2287
     80  O          3.4860    2.5350    0.2820 O.2    68  MET68      -0.2864
     81  CB         2.9260    2.8320    3.5220 C.3    68  MET68       0.0413
     82  CG         3.6470    3.2950    4.7520 C.3    68  MET68       0.0598
     83  SD         2.9150    4.6910    5.7150 S.3    68  MET68      -0.1393
     84  CE         1.5250    3.7770    6.4110 C.3    68  MET68       0.0692
     85  N          1.5370    4.5360   -1.8750 N.3    70  ASN70      -0.1240
     86  CA         2.1980    5.1680   -3.0260 C.3    70  ASN70       0.1653
     87  C          3.6770    4.6760   -3.0890 C.2    70  ASN70       0.2266
     88  O          4.2100    4.3680   -4.1880 O.2    70  ASN70      -0.2867
     89  CB         2.2360    6.7130   -2.8780 C.3    70  ASN70       0.1155
     90  CG         0.8230    7.4180   -2.9660 C.2    70  ASN70       0.2627
     91  OD1       -0.1820    6.8140   -3.2610 O.2    70  ASN70      -0.2716
     92  ND2        0.8080    8.7330   -2.7330 N.am   70  ASN70      -0.0877
     93  N         -0.5760    3.0580    9.6230 N.3   138  ALA138     -0.1245
     94  CA        -0.5610    4.4770    9.9420 C.3   138  ALA138      0.1562
     95  C         -1.1350    4.6060   11.3480 C.2   138  ALA138      0.2260
     96  O         -1.9450    3.7750   11.7660 O.2   138  ALA138     -0.2867
     97  CB        -1.4250    5.2470    8.9490 C.3   138  ALA138      0.0290
     98  N          0.0520    9.4310   16.1620 N.3   141  ALA141     -0.1245
     99  CA         1.1880    9.3870   17.0710 C.3   141  ALA141      0.1562
    100  C          1.1930   10.5780   18.0030 C.2   141  ALA141      0.2260
    101  O          2.2870   11.1390   18.2790 O.2   141  ALA141     -0.2867
    102  CB         2.4960    9.3910   16.3420 C.3   141  ALA141      0.0290
    103  N          5.0950   11.1710   22.0130 N.3   145  MET145     -0.1245
    104  CA         6.2840   11.8230   22.5670 C.3   145  MET145      0.1570
    105  C          6.3710   11.7470   24.0790 C.2   145  MET145      0.2261
    106  O          7.4640   11.7640   24.6360 O.2   145  MET145     -0.2867
    107  CB         6.4230   13.2710   22.0670 C.3   145  MET145      0.0387
    108  CG         6.9330   13.3170   20.6000 C.3   145  MET145      0.0595
    109  SD         8.6090   12.5260   20.2740 S.3   145  MET145     -0.1393
    110  CE         8.8200   13.0600   18.5170 C.3   145  MET145      0.0692
    111  N         -4.6240   10.2980   11.6880 N.3   160  LEU160     -0.1231
    112  CA        -3.4720    9.5700   11.2290 C.3   160  LEU160      0.1693
    113  C         -2.3880   10.5380   10.8410 C.2   160  LEU160      0.2592
    114  O         -2.6480   11.4430   10.1160 O.2   160  LEU160     -0.2718
    115  CB        -3.8630    8.7100   10.0170 C.3   160  LEU160      0.0284
    116  CG        -4.4490    7.2900   10.2030 C.3   160  LEU160      0.0019
    117  CD1       -4.3080    6.6890   11.5480 C.3   160  LEU160      0.0001
    118  CD2       -5.8750    7.2860    9.8390 C.3   160  LEU160      0.0001
    119  N         -1.1620   10.3500   11.2890 N.am  161  ASP161     -0.1960
    120  CA        -0.1270   11.3280   10.9450 C.3   161  ASP161      0.1840
    121  C          1.2520   10.7390   10.9350 C.2   161  ASP161      0.2622
    122  O          2.2510   11.4450   10.7650 O.2   161  ASP161     -0.2715
    123  CB        -0.1840   12.5690   11.8700 C.3   161  ASP161      0.1450
    124  CG         0.0820   12.2400   13.3500 C.2   161  ASP161      0.3671
    125  OD1       -0.0330   13.1750   14.1850 O.co2 161  ASP161     -0.2456
    126  OD2        0.3810   11.0650   13.6910 O.co2 161  ASP161     -0.2456
    127  N          1.3130    9.4240   11.0730 N.am  162  HIS162     -0.1959
    128  CA         2.5960    8.7950   11.2130 C.3   162  HIS162      0.1787
    129  C          2.5030    7.3640   10.6880 C.2   162  HIS162      0.2620
    130  O          1.4860    6.7080   10.8610 O.2   162  HIS162     -0.2715
    131  CB         2.9630    8.8520   12.6940 C.3   162  HIS162      0.0785
    132  CG         4.2900    8.2720   13.0400 C.ar  162  HIS162      0.0821
    133  ND1        5.4410    8.5710   12.3560 N.ar  162  HIS162     -0.2267
    134  CD2        4.6590    7.4570   14.0550 C.ar  162  HIS162      0.1154
    135  CE1        6.4670    7.9580   12.9230 C.ar  162  HIS162      0.1986
    136  NE2        6.0220    7.2850   13.9700 N.ar  162  HIS162     -0.2212
    137  N          3.5820    6.9180   10.0390 N.am  163  GLY163     -0.1954
    138  CA         3.6970    5.5950    9.5550 C.3   163  GLY163      0.1869
    139  C          4.7120    4.7920   10.3470 C.2   163  GLY163      0.2309
    140  O          5.8600    5.2460   10.5540 O.2   163  GLY163     -0.2863
    141  N         12.3880    6.4230   15.6160 N.3   184  TRP184     -0.1241
    142  CA        12.8790    7.5870   16.4210 C.3   184  TRP184      0.1605
    143  C         14.0420    7.1540   17.2830 C.2   184  TRP184      0.2264
    144  O         14.1440    7.6220   18.4380 O.2   184  TRP184     -0.2867
    145  CB        11.7530    8.1010   17.3660 C.3   184  TRP184      0.0550
    146  CG        10.5690    8.6550   16.6110 C.ar  184  TRP184      0.0003
    147  CD1       10.5280    8.9170   15.2700 C.ar  184  TRP184      0.0946
    148  CD2        9.2750    9.0450   17.1320 C.ar  184  TRP184      0.0152
    149  NE1        9.2920    9.3930   14.9180 N.ar  184  TRP184     -0.2442
    150  CE2        8.5100    9.5050   16.0320 C.ar  184  TRP184      0.0810
    151  CE3        8.7010    9.0560   18.4070 C.ar  184  TRP184      0.0012
    152  CZ2        7.2010    9.9710   16.1620 C.ar  184  TRP184      0.0191
    153  CZ3        7.4070    9.5200   18.5420 C.ar  184  TRP184      0.0001
    154  CH2        6.6570    9.9730   17.4230 C.ar  184  TRP184      0.0015
    155  N         -5.2800    2.0130    8.3060 N.3   208  GLU208     -0.1245
    156  CA        -4.4960    2.0360    7.0370 C.3   208  GLU208      0.1567
    157  C         -3.3770    1.0520    7.0680 C.2   208  GLU208      0.2260
    158  O         -2.2090    1.4600    7.0810 O.2   208  GLU208     -0.2867
    159  CB        -3.8270    3.3750    6.7970 C.3   208  GLU208      0.0388
    160  CG        -4.7510    4.4760    6.5310 C.3   208  GLU208      0.1160
    161  CD        -5.2450    4.4950    5.0890 C.2   208  GLU208      0.3649
    162  OE1       -4.7190    3.7130    4.2450 O.co2 208  GLU208     -0.2457
    163  OE2       -6.1920    5.2850    4.8310 O.co2 208  GLU208     -0.2457
@<TRIPOS>BOND
     1    40    38    1
     2    38    35    1
     3    38    39    1
     4    34    35    1
     5    35    36    1
     6    36    37    2
     7    36    41   am
     8    88    87    2
     9    41    42    1
    10    91    90    2
    11    44    43    2
    12    87    86    1
    13    86    89    1
    14    86    85    1
    15    90    89    1
    16    90    92   am
    17    42    43    1
    18    42    45    1
    19    43    49   am
    20    48    46   ar
    21    45    46    1
    22    46    47   ar
    23    54    53    1
    24    49    50    1
    25    50    53    1
    26    50    51    1
    27    51    52    2
    28    75    74    1
    29    33    32   ar
    30    33    31   ar
    31    80    79    2
    32    32    30   ar
    33    72    71    2
    34    79    78    1
    35    73    74    1
    36    73    70    1
    37    74    76    1
    38    31    29   ar
    39    69    70    1
    40    69    67   am
    41    71    70    1
    42    71    77   am
    43    30    27   ar
    44    64    63    2
    45    66    67    1
    46    66    65    1
    47    78    77    1
    48    78    81    1
    49    29    27   ar
    50    29    28   ar
    51    67    68    2
    52    27    25   ar
    53    60    59    1
    54    63    65   am
    55    63    62    1
    56    59    56    1
    57    28    26   ar
    58    81    82    1
    59    55    56    1
    60    61    62    1
    61    61    57   am
    62    25    26   ar
    63    25    24    1
    64    56    57    1
    65   162   161   ar
    66    57    58    2
    67    23    22    2
    68    24    21    1
    69    82    83    1
    70    22    21    1
    71   163   161   ar
    72   161   160    1
    73    21    20    1
    74    83    84    1
    75    13    12    2
    76   160   159    1
    77    20    16   am
    78   159   156    1
    79    12    11    1
    80   156   157    1
    81   156   155    1
    82   157   158    2
    83    16    17    2
    84    16    15    1
    85    10    11    1
    86    14    15    1
    87    15    18    1
    88    19    18    1
    89    97    94    1
    90   138   137    1
    91   138   139    1
    92    93    94    1
    93     4     3    2
    94   118   116    1
    95    94    95    1
    96   115   116    1
    97   115   112    1
    98   137   129   am
    99   114   113    2
   100   116   117    1
   101   139   140    2
   102     5     2    1
   103     5     6    1
   104     2     3    1
   105     2     1    1
   106   129   130    2
   107   129   128    1
   108   122   121    2
   109   113   112    1
   110   113   119   am
   111   121   120    1
   112   121   127   am
   113   120   119    1
   114   120   123    1
   115   127   128    1
   116     9     7   am
   117   128   131    1
   118   112   111    1
   119    95    96    2
   120     7     8    2
   121     7     6    1
   122   123   124    1
   123   133   135   ar
   124   133   132   ar
   125   131   132    1
   126   135   136   ar
   127   132   134   ar
   128   124   126   ar
   129   124   125   ar
   130   136   134   ar
   131   149   147   ar
   132   149   150   ar
   133   147   146   ar
   134   141   142    1
   135   150   152   ar
   136   150   148   ar
   137    98    99    1
   138   152   154   ar
   139   102    99    1
   140   142   143    1
   141   142   145    1
   142   146   148   ar
   143   146   145    1
   144    99   100    1
   145   148   151   ar
   146   143   144    2
   147   154   153   ar
   148   100   101    2
   149   151   153   ar
   150   110   109    1
   151   109   108    1
   152   108   107    1
   153   103   104    1
   154   107   104    1
   155   104   105    1
   156   105   106    2
