@<TRIPOS>MOLECULE
tmp/1u9vA00.pdb
 121 117 0 0 0
SMALL
GASTEIGER

@<TRIPOS>ATOM
      1  N         64.4870   25.4640   -3.0580 N.3    19  GLN19      -0.1245
      2  CA        65.1620   24.2120   -2.7050 C.3    19  GLN19       0.1566
      3  C         66.5690   24.1140   -3.3180 C.2    19  GLN19       0.2260
      4  O         67.2940   23.1720   -3.0620 O.2    19  GLN19      -0.2867
      5  CB        64.3170   22.9990   -3.1290 C.3    19  GLN19       0.0367
      6  CG        64.0460   22.9180   -4.6160 C.3    19  GLN19       0.0905
      7  CD        62.9780   21.8880   -4.9630 C.2    19  GLN19       0.2608
      8  OE1       61.8050   22.0750   -4.6660 O.2    19  GLN19      -0.2717
      9  NE2       63.3880   20.7940   -5.5940 N.am   19  GLN19      -0.0878
     10  N         66.6640   17.8440   -5.0730 N.3    23  GLY23      -0.1225
     11  CA        65.2770   17.4520   -5.3050 C.3    23  GLY23       0.1811
     12  C         64.5540   17.1440   -3.9730 C.2    23  GLY23       0.2280
     13  O         64.0370   16.0340   -3.7480 O.2    23  GLY23      -0.2866
     14  N         61.8310   18.8170   -2.8560 N.3    25  CYS25      -0.1221
     15  CA        60.5140   19.4360   -2.8670 C.3    25  CYS25       0.1808
     16  C         59.6380   18.8570   -1.7290 C.2    25  CYS25       0.2601
     17  O         58.9100   19.5970   -1.0720 O.2    25  CYS25      -0.2717
     18  CB        59.8050   19.2020   -4.1780 C.3    25  CYS25       0.0970
     19  SG        59.6690   17.4210   -4.5930 S.3    25  CYS25      -0.0800
     20  N         59.7300   17.5460   -1.5130 N.am   26  TRP26      -0.1976
     21  CA        58.9430   16.8500   -0.4910 C.3    26  TRP26       0.1640
     22  C         59.2250   17.3390    0.9300 C.2    26  TRP26       0.2290
     23  O         58.3400   17.3140    1.7800 O.2    26  TRP26      -0.2864
     24  CB        59.2120   15.3300   -0.5680 C.3    26  TRP26       0.0576
     25  CG        60.6470   14.9640   -0.2990 C.ar   26  TRP26       0.0006
     26  CD1       61.6590   14.8660   -1.2210 C.ar   26  TRP26       0.0946
     27  CD2       61.2420   14.6670    0.9840 C.ar   26  TRP26       0.0152
     28  NE1       62.8400   14.5290   -0.5920 N.ar   26  TRP26      -0.2442
     29  CE2       62.6160   14.4040    0.7560 C.ar   26  TRP26       0.0810
     30  CE3       60.7450   14.5990    2.2960 C.ar   26  TRP26       0.0012
     31  CZ2       63.5120   14.0740    1.8040 C.ar   26  TRP26       0.0191
     32  CZ3       61.6420   14.2730    3.3460 C.ar   26  TRP26       0.0001
     33  CH2       63.0010   14.0160    3.0880 C.ar   26  TRP26       0.0015
     34  N         68.0580   14.2010   -1.5880 N.3    63  CYS63      -0.1221
     35  CA        67.9330   15.0940   -2.7350 C.3    63  CYS63       0.1808
     36  C         67.4340   14.3620   -3.9670 C.2    63  CYS63       0.2602
     37  O         67.2620   14.9710   -5.0230 O.2    63  CYS63      -0.2717
     38  CB        69.2720   15.7430   -3.0460 C.3    63  CYS63       0.0970
     39  SG        69.6960   17.0390   -1.8420 S.3    63  CYS63      -0.0800
     40  N         67.1960   13.0640   -3.8120 N.am   64  GLY64      -0.1942
     41  CA        66.7140   12.2470   -4.9080 C.3    64  GLY64       0.2014
     42  C         65.2150   12.0120   -4.8370 C.2    64  GLY64       0.2639
     43  O         64.6770   11.2530   -5.6340 O.2    64  GLY64      -0.2714
     44  N         64.5320   12.6530   -3.8880 N.am   65  GLY65      -0.1939
     45  CA        63.0870   12.4970   -3.8030 C.3    65  GLY65       0.2014
     46  C         62.6330   11.8340   -2.5230 C.2    65  GLY65       0.2639
     47  O         63.4510   11.3230   -1.7820 O.2    65  GLY65      -0.2714
     48  N         61.3320   11.8490   -2.2610 N.am   66  GLY66      -0.1939
     49  CA        60.8290   11.2310   -1.0450 C.3    66  GLY66       0.2014
     50  C         59.3540   11.5080   -0.8570 C.2    66  GLY66       0.2639
     51  O         58.7670   12.2610   -1.6380 O.2    66  GLY66      -0.2714
     52  N         58.7550   10.9090    0.1670 N.am   67  TYR67      -0.1959
     53  CA        57.3410   11.1060    0.4400 C.3    67  TYR67       0.1771
     54  C         57.0870   11.9420    1.6770 C.2    67  TYR67       0.2619
     55  O         57.8050   11.8420    2.6660 O.2    67  TYR67      -0.2715
     56  CB        56.6370    9.7590    0.6210 C.3    67  TYR67       0.0574
     57  CG        56.6180    8.9550   -0.6330 C.ar   67  TYR67      -0.0198
     58  CD1       55.6030    9.1230   -1.5660 C.ar   67  TYR67      -0.0009
     59  CD2       57.6540    8.0620   -0.9240 C.ar   67  TYR67      -0.0009
     60  CE1       55.6100    8.4220   -2.7790 C.ar   67  TYR67       0.0417
     61  CE2       57.6760    7.3520   -2.1340 C.ar   67  TYR67       0.0417
     62  CZ        56.6460    7.5400   -3.0570 C.ar   67  TYR67       0.1957
     63  OH        56.6510    6.8480   -4.2490 O.3    67  TYR67      -0.2866
     64  N         56.0270   12.7330    1.6210 N.am   68  MET68      -0.1977
     65  CA        55.6570   13.5660    2.7550 C.3    68  MET68       0.1605
     66  C         55.1480   12.6990    3.9200 C.2    68  MET68       0.2287
     67  O         55.4280   13.0230    5.0560 O.2    68  MET68      -0.2864
     68  CB        54.5830   14.5740    2.3550 C.3    68  MET68       0.0413
     69  CG        55.0780   15.6460    1.3930 C.3    68  MET68       0.0598
     70  SD        55.0590   15.0190   -0.3240 S.3    68  MET68      -0.1393
     71  CE        53.3680   15.2090   -0.7890 C.3    68  MET68       0.0692
     72  N         50.8920   16.3690   -4.0280 N.3   134  ALA134     -0.1245
     73  CA        51.8690   16.0560   -5.0740 C.3   134  ALA134      0.1562
     74  C         51.1560   16.2470   -6.4150 C.2   134  ALA134      0.2260
     75  O         49.9470   16.0790   -6.5050 O.2   134  ALA134     -0.2867
     76  CB        52.3690   14.6170   -4.9240 C.3   134  ALA134      0.0290
     77  N         55.6850   18.2070  -14.9300 N.3   138  SER138     -0.1217
     78  CA        56.5510   17.9690  -16.0930 C.3   138  SER138      0.1889
     79  C         56.3100   18.9160  -17.2570 C.2   138  SER138      0.2288
     80  O         57.2330   19.1850  -18.0070 O.2   138  SER138     -0.2866
     81  CB        56.3740   16.5300  -16.5910 C.3   138  SER138      0.2089
     82  OG        55.0730   16.3640  -17.1730 O.3   138  SER138     -0.2183
     83  N         52.9090   11.6580  -10.8720 N.3   160  LEU160     -0.1231
     84  CA        53.2160   12.5970   -9.7930 C.3   160  LEU160      0.1693
     85  C         54.7310   12.6790   -9.6620 C.2   160  LEU160      0.2592
     86  O         55.3820   11.7020   -9.2800 O.2   160  LEU160     -0.2718
     87  CB        52.5820   12.1260   -8.4740 C.3   160  LEU160      0.0284
     88  CG        51.0600   11.8900   -8.4920 C.3   160  LEU160      0.0019
     89  CD1       50.6110   11.4570   -7.0940 C.3   160  LEU160      0.0001
     90  CD2       50.3180   13.1360   -8.9130 C.3   160  LEU160      0.0001
     91  N         55.2980   13.8480   -9.9530 N.am  161  ASN161     -0.1960
     92  CA        56.7540   13.9890   -9.9180 C.3   161  ASN161      0.1819
     93  C         57.2290   15.2210   -9.1400 C.2   161  ASN161      0.2621
     94  O         58.4110   15.5230   -9.1520 O.2   161  ASN161     -0.2715
     95  CB        57.2550   14.0810  -11.3650 C.3   161  ASN161      0.1195
     96  CG        56.4120   15.0330  -12.1790 C.2   161  ASN161      0.2630
     97  OD1       56.2650   16.1850  -11.7980 O.2   161  ASN161     -0.2716
     98  ND2       55.8050   14.5490  -13.2850 N.am  161  ASN161     -0.0877
     99  N         56.3160   15.9410   -8.4830 N.am  162  HIS162     -0.1959
    100  CA        56.6810   17.1380   -7.7140 C.3   162  HIS162      0.1787
    101  C         55.7060   17.2960   -6.5220 C.2   162  HIS162      0.2620
    102  O         54.5350   16.9190   -6.6120 O.2   162  HIS162     -0.2715
    103  CB        56.6100   18.3870   -8.6180 C.3   162  HIS162      0.0785
    104  CG        57.1290   19.6410   -7.9750 C.ar  162  HIS162      0.0821
    105  ND1       58.2650   19.6630   -7.1890 N.ar  162  HIS162     -0.2267
    106  CD2       56.6700   20.9210   -8.0030 C.ar  162  HIS162      0.1154
    107  CE1       58.4850   20.8980   -6.7620 C.ar  162  HIS162      0.1986
    108  NE2       57.5330   21.6820   -7.2410 N.ar  162  HIS162     -0.2212
    109  N         56.1990   17.8610   -5.4210 N.am  163  ALA163     -0.1977
    110  CA        55.3950   18.0640   -4.2020 C.3   163  ALA163      0.1597
    111  C         55.3530   19.5550   -3.8860 C.2   163  ALA163      0.2287
    112  O         56.3920   20.2440   -3.9900 O.2   163  ALA163     -0.2864
    113  CB        56.0300   17.3130   -3.0340 C.3   163  ALA163      0.0319
    114  N         47.7240   12.4550   -3.8140 N.3   209  LEU209     -0.1245
    115  CA        48.6680   12.0790   -2.7370 C.3   209  LEU209      0.1561
    116  C         48.7540   13.2200   -1.7440 C.2   209  LEU209      0.2260
    117  O         49.8340   13.7520   -1.5010 O.2   209  LEU209     -0.2867
    118  CB        50.0700   11.8020   -3.3070 C.3   209  LEU209      0.0270
    119  CG        51.0160   10.8760   -2.5130 C.3   209  LEU209      0.0019
    120  CD1       50.4630    9.4620   -2.4960 C.3   209  LEU209      0.0001
    121  CD2       52.3950   10.8560   -3.1600 C.3   209  LEU209      0.0001
@<TRIPOS>BOND
     1    80    79    2
     2    79    78    1
     3    82    81    1
     4    81    78    1
     5    78    77    1
     6    98    96   am
     7    96    97    2
     8    96    95    1
     9    95    92    1
    10    83    84    1
    11    91    92    1
    12    91    85   am
    13    92    93    1
    14    84    85    1
    15    84    87    1
    16    85    86    2
    17    94    93    2
    18    93    99   am
    19    90    88    1
    20   103   104    1
    21   103   100    1
    22    88    87    1
    23    88    89    1
    24    99   100    1
    25   106   104   ar
    26   106   108   ar
    27   104   105   ar
    28   100   101    1
    29   108   107   ar
    30   105   107   ar
    31   102   101    2
    32   101   109   am
    33    75    74    2
    34    74    73    1
    35    43    42    2
    36     9     7   am
    37   109   110    1
    38    11    10    1
    39    11    12    1
    40    73    76    1
    41    73    72    1
    42    37    36    2
    43     7     8    2
    44     7     6    1
    45    41    42    1
    46    41    40    1
    47    42    44   am
    48     6     5    1
    49    19    18    1
    50    63    62    1
    51   110   111    1
    52   110   113    1
    53    18    15    1
    54   112   111    2
    55    12    13    2
    56    36    40   am
    57    36    35    1
    58    44    45    1
    59   114   115    1
    60    45    46    1
    61     3     4    2
    62     3     2    1
    63   118   115    1
    64   118   119    1
    65   121   119    1
    66     5     2    1
    67     1     2    1
    68    62    60   ar
    69    62    61   ar
    70    38    35    1
    71    38    39    1
    72    15    14    1
    73    15    16    1
    74    60    58   ar
    75   115   116    1
    76    35    34    1
    77    46    48   am
    78    46    47    2
    79   119   120    1
    80    48    49    1
    81    61    59   ar
    82   116   117    2
    83    16    20   am
    84    16    17    2
    85    51    50    2
    86    58    57   ar
    87    20    21    1
    88    26    28   ar
    89    26    25   ar
    90    49    50    1
    91    59    57   ar
    92    50    52   am
    93    71    70    1
    94    57    56    1
    95    28    29   ar
    96    24    21    1
    97    24    25    1
    98    21    22    1
    99    70    69    1
   100    25    27   ar
   101    52    53    1
   102    53    56    1
   103    53    54    1
   104    29    27   ar
   105    29    31   ar
   106    22    23    2
   107    27    30   ar
   108    69    68    1
   109    64    54   am
   110    64    65    1
   111    54    55    2
   112    31    33   ar
   113    30    32   ar
   114    68    65    1
   115    65    66    1
   116    33    32   ar
   117    66    67    2
