@<TRIPOS>MOLECULE
tmp/1u9wA00.pdb
 109 103 0 0 0
SMALL
GASTEIGER

@<TRIPOS>ATOM
      1  N         64.9950   25.0730   -2.0990 N.3    20  GLN20      -0.1245
      2  CA        65.6510   23.8190   -1.7440 C.3    20  GLN20       0.1566
      3  C         67.0410   23.7160   -2.4350 C.2    20  GLN20       0.2260
      4  O         67.8250   22.8120   -2.1610 O.2    20  GLN20      -0.2867
      5  CB        64.7720   22.6450   -2.1530 C.3    20  GLN20       0.0367
      6  CG        64.3530   22.6960   -3.6020 C.3    20  GLN20       0.0905
      7  CD        63.3450   21.6180   -3.9260 C.2    20  GLN20       0.2608
      8  OE1       62.1840   21.7110   -3.5400 O.2    20  GLN20      -0.2717
      9  NE2       63.7880   20.5810   -4.6280 N.am   20  GLN20      -0.0878
     10  N         66.8770   17.6430   -4.2800 N.3    24  GLY24      -0.1225
     11  CA        65.4940   17.3020   -4.5540 C.3    24  GLY24       0.1811
     12  C         64.7990   16.9560   -3.2550 C.2    24  GLY24       0.2280
     13  O         64.3550   15.8200   -3.0470 O.2    24  GLY24      -0.2866
     14  N         61.9950   18.5290   -2.0210 N.3    26  CYS26      -0.1235
     15  CA        60.6840   19.1450   -1.9870 C.3    26  CYS26       0.1677
     16  C         59.8130   18.5440   -0.8850 C.2    26  CYS26       0.2270
     17  O         59.1410   19.2890   -0.1710 O.2    26  CYS26      -0.2867
     18  CB        59.9830   18.9730   -3.3280 C.3    26  CYS26       0.0956
     19  SG        59.7720   17.2320   -3.8090 S.3    26  CYS26      -0.0801
     20  N         64.6880    9.3070    0.4530 N.3    62  ASP62      -0.1239
     21  CA        65.9490    9.3450   -0.2940 C.3    62  ASP62       0.1674
     22  C         66.6970   10.6540   -0.2630 C.2    62  ASP62       0.2266
     23  O         67.3760   10.9950   -1.2360 O.2    62  ASP62      -0.2867
     24  CB        65.7080    8.9850   -1.7480 C.3    62  ASP62       0.1410
     25  CG        65.3090    7.5490   -1.9220 C.2    62  ASP62       0.3668
     26  OD1       65.9490    6.6850   -1.2840 O.co2  62  ASP62      -0.2456
     27  OD2       64.3620    7.2770   -2.6880 O.co2  62  ASP62      -0.2456
     28  N         68.0950   13.9300   -0.9310 N.3    64  CYS64      -0.1221
     29  CA        67.9830   14.8360   -2.0630 C.3    64  CYS64       0.1808
     30  C         67.4190   14.1030   -3.2580 C.2    64  CYS64       0.2602
     31  O         67.1940   14.6980   -4.3120 O.2    64  CYS64      -0.2717
     32  CB        69.3420   15.4290   -2.4120 C.3    64  CYS64       0.0970
     33  SG        69.9340   16.5490   -1.1080 S.3    64  CYS64      -0.0800
     34  N         67.1630   12.8130   -3.0880 N.am   65  GLY65      -0.1942
     35  CA        66.6250   12.0360   -4.1890 C.3    65  GLY65       0.2014
     36  C         65.1150   11.9270   -4.2270 C.2    65  GLY65       0.2639
     37  O         64.5660   11.3630   -5.1730 O.2    65  GLY65      -0.2714
     38  N         64.4370   12.4610   -3.2090 N.am   66  GLY66      -0.1939
     39  CA        62.9880   12.3880   -3.1810 C.3    66  GLY66       0.2014
     40  C         62.5040   11.6400   -1.9590 C.2    66  GLY66       0.2639
     41  O         63.2910   10.9720   -1.2870 O.2    66  GLY66      -0.2714
     42  N         61.2130   11.7490   -1.6630 N.am   67  GLY67      -0.1939
     43  CA        60.6650   11.0680   -0.4990 C.3    67  GLY67       0.2014
     44  C         59.1790   11.3420   -0.3380 C.2    67  GLY67       0.2639
     45  O         58.5840   12.0310   -1.1450 O.2    67  GLY67      -0.2714
     46  N         58.5730   10.7930    0.7000 N.am   68  TYR68      -0.1959
     47  CA        57.1580   11.0060    0.9420 C.3    68  TYR68       0.1771
     48  C         56.9630   11.8450    2.1780 C.2    68  TYR68       0.2619
     49  O         57.7300   11.7300    3.1360 O.2    68  TYR68      -0.2715
     50  CB        56.4430    9.6700    1.1450 C.3    68  TYR68       0.0574
     51  CG        56.3820    8.8790   -0.1150 C.ar   68  TYR68      -0.0198
     52  CD1       55.4090    9.1420   -1.0670 C.ar   68  TYR68      -0.0009
     53  CD2       57.3520    7.9150   -0.4010 C.ar   68  TYR68      -0.0009
     54  CE1       55.3990    8.4720   -2.2780 C.ar   68  TYR68       0.0417
     55  CE2       57.3560    7.2340   -1.6050 C.ar   68  TYR68       0.0417
     56  CZ        56.3780    7.5210   -2.5430 C.ar   68  TYR68       0.1957
     57  OH        56.3820    6.8830   -3.7550 O.3    68  TYR68      -0.2866
     58  N         55.9350   12.6830    2.1550 N.am   69  MET69      -0.1977
     59  CA        55.6280   13.5040    3.2980 C.3    69  MET69       0.1605
     60  C         55.1310   12.6230    4.4680 C.2    69  MET69       0.2287
     61  O         55.4590   12.8920    5.6200 O.2    69  MET69      -0.2864
     62  CB        54.5850   14.5520    2.9060 C.3    69  MET69       0.0413
     63  CG        55.0720   15.5610    1.8460 C.3    69  MET69       0.0598
     64  SD        54.9730   14.9550    0.1200 S.3    69  MET69      -0.1393
     65  CE        53.3270   15.3510   -0.4010 C.3    69  MET69       0.0692
     66  N         51.1100   16.4970   -3.6640 N.3   135  ALA135     -0.1245
     67  CA        52.0710   16.1920   -4.7150 C.3   135  ALA135      0.1562
     68  C         51.3680   16.4220   -6.0560 C.2   135  ALA135      0.2260
     69  O         50.1560   16.3180   -6.1720 O.2   135  ALA135     -0.2867
     70  CB        52.5560   14.7540   -4.6030 C.3   135  ALA135      0.0290
     71  N         53.3170   11.7400  -10.4150 N.3   161  LEU161     -0.1231
     72  CA        53.6180   12.6480   -9.2940 C.3   161  LEU161      0.1693
     73  C         55.1340   12.7630   -9.0640 C.2   161  LEU161      0.2592
     74  O         55.7820   11.7980   -8.6700 O.2   161  LEU161     -0.2718
     75  CB        52.9320   12.1640   -8.0180 C.3   161  LEU161      0.0284
     76  CG        51.4200   11.9390   -8.1000 C.3   161  LEU161      0.0019
     77  CD1       50.8990   11.5010   -6.7420 C.3   161  LEU161      0.0001
     78  CD2       50.7260   13.2090   -8.5450 C.3   161  LEU161      0.0001
     79  N         55.7050   13.9480   -9.2720 N.am  162  ASN162     -0.1960
     80  CA        57.1560   14.0720   -9.1310 C.3   162  ASN162      0.1819
     81  C         57.6430   15.3060   -8.3950 C.2   162  ASN162      0.2621
     82  O         58.8170   15.6750   -8.5020 O.2   162  ASN162     -0.2715
     83  CB        57.7660   14.0560  -10.5270 C.3   162  ASN162      0.1195
     84  CG        57.0090   14.9520  -11.4750 C.2   162  ASN162      0.2630
     85  OD1       56.8140   16.1260  -11.2040 O.2   162  ASN162     -0.2716
     86  ND2       56.5570   14.3980  -12.5820 N.am  162  ASN162     -0.0877
     87  N         56.7400   15.9720   -7.6870 N.am  163  HIS163     -0.1959
     88  CA        57.0970   17.1630   -6.9390 C.3   163  HIS163      0.1787
     89  C         56.1250   17.3540   -5.7770 C.2   163  HIS163      0.2620
     90  O         54.9200   17.0710   -5.9010 O.2   163  HIS163     -0.2715
     91  CB        57.0770   18.3990   -7.8490 C.3   163  HIS163      0.0785
     92  CG        57.6530   19.6310   -7.2120 C.ar  163  HIS163      0.0821
     93  ND1       58.8290   19.6190   -6.4900 N.ar  163  HIS163     -0.2267
     94  CD2       57.2540   20.9260   -7.2530 C.ar  163  HIS163      0.1154
     95  CE1       59.1310   20.8540   -6.1150 C.ar  163  HIS163      0.1986
     96  NE2       58.1910   21.6640   -6.5660 N.ar  163  HIS163     -0.2212
     97  N         56.6540   17.8480   -4.6590 N.am  164  ALA164     -0.1977
     98  CA        55.8510   18.0830   -3.4700 C.3   164  ALA164      0.1597
     99  C         55.7580   19.5840   -3.1820 C.2   164  ALA164      0.2287
    100  O         56.7660   20.2970   -3.1980 O.2   164  ALA164     -0.2864
    101  CB        56.4750   17.3460   -2.2710 C.3   164  ALA164      0.0319
    102  N         47.8540   12.6860   -3.5000 N.3   210  LEU210     -0.1245
    103  CA        48.7250   12.2640   -2.3940 C.3   210  LEU210      0.1561
    104  C         48.8240   13.3850   -1.3720 C.2   210  LEU210      0.2260
    105  O         49.9010   13.8470   -1.0390 O.2   210  LEU210     -0.2867
    106  CB        50.1190   11.8950   -2.9190 C.3   210  LEU210      0.0270
    107  CG        50.9770   11.0110   -2.0050 C.3   210  LEU210      0.0019
    108  CD1       50.3720    9.6230   -1.8510 C.3   210  LEU210      0.0001
    109  CD2       52.3480   10.9070   -2.5900 C.3   210  LEU210      0.0001
@<TRIPOS>BOND
     1    86    84   am
     2    84    85    2
     3    84    83    1
     4    83    80    1
     5    71    72    1
     6    72    73    1
     7    72    75    1
     8    79    80    1
     9    79    73   am
    10    80    81    1
    11    73    74    2
    12    78    76    1
    13    82    81    2
    14    81    87   am
    15    76    75    1
    16    76    77    1
    17    91    92    1
    18    91    88    1
    19    87    88    1
    20    94    92   ar
    21    94    96   ar
    22    92    93   ar
    23    88    89    1
    24    96    95   ar
    25    93    95   ar
    26    69    68    2
    27    68    67    1
    28    90    89    2
    29    89    97   am
    30    37    36    2
    31    67    70    1
    32    67    66    1
    33    97    98    1
    34     9     7   am
    35    11    10    1
    36    11    12    1
    37    31    30    2
    38    36    35    1
    39    36    38   am
    40    35    34    1
    41     7     6    1
    42     7     8    2
    43    19    18    1
    44    57    56    1
    45     6     5    1
    46   102   103    1
    47    98    99    1
    48    98   101    1
    49    18    15    1
    50    30    34   am
    51    30    29    1
    52    12    13    2
    53    38    39    1
    54   100    99    2
    55    39    40    1
    56   106   103    1
    57   106   107    1
    58    27    25   ar
    59   109   107    1
    60    56    54   ar
    61    56    55   ar
    62     3     4    2
    63     3     2    1
    64    32    29    1
    65    32    33    1
    66   103   104    1
    67    54    52   ar
    68     5     2    1
    69     1     2    1
    70    29    28    1
    71    14    15    1
    72   107   108    1
    73    15    16    1
    74    40    42   am
    75    40    41    2
    76    25    24    1
    77    25    26   ar
    78    24    21    1
    79    42    43    1
    80    55    53   ar
    81   104   105    2
    82    23    22    2
    83    45    44    2
    84    52    51   ar
    85    16    17    2
    86    43    44    1
    87    53    51   ar
    88    65    64    1
    89    44    46   am
    90    21    22    1
    91    21    20    1
    92    51    50    1
    93    64    63    1
    94    46    47    1
    95    47    50    1
    96    47    48    1
    97    63    62    1
    98    58    48   am
    99    58    59    1
   100    48    49    2
   101    62    59    1
   102    59    60    1
   103    60    61    2
