@<TRIPOS>MOLECULE
tmp/1u9xA00.pdb
 90 86 0 0 0
SMALL
GASTEIGER

@<TRIPOS>ATOM
      1  N         61.9990   18.5300   -2.0650 N.3    26  CYS26      -0.1235
      2  CA        60.6640   19.1230   -2.0090 C.3    26  CYS26       0.1677
      3  C         59.7660   18.5370   -0.9350 C.2    26  CYS26       0.2270
      4  O         59.0400   19.2800   -0.2830 O.2    26  CYS26      -0.2867
      5  CB        59.9610   19.0060   -3.3580 C.3    26  CYS26       0.0956
      6  SG        59.7430   17.2960   -3.9080 S.3    26  CYS26      -0.0801
      7  N         64.6570    9.2130    0.4250 N.3    62  ASP62      -0.1239
      8  CA        65.9520    9.2130   -0.2660 C.3    62  ASP62       0.1674
      9  C         66.6960   10.5550   -0.3160 C.2    62  ASP62       0.2266
     10  O         67.3360   10.8760   -1.3260 O.2    62  ASP62      -0.2867
     11  CB        65.7740    8.6550   -1.6860 C.3    62  ASP62       0.1410
     12  CG        67.0630    8.0420   -2.2560 C.2    62  ASP62       0.3668
     13  OD1       67.9920    7.7100   -1.4750 O.co2  62  ASP62      -0.2456
     14  OD2       67.1350    7.8970   -3.4980 O.co2  62  ASP62      -0.2456
     15  N         67.1620   12.8680   -3.1360 N.3    65  GLY65      -0.1210
     16  CA        66.6540   12.1020   -4.2560 C.3    65  GLY65       0.1956
     17  C         65.1480   11.9280   -4.2880 C.2    65  GLY65       0.2612
     18  O         64.6380   11.2250   -5.1610 O.2    65  GLY65      -0.2717
     19  N         64.4350   12.5560   -3.3460 N.am   66  GLY66      -0.1942
     20  CA        62.9860   12.4310   -3.3120 C.3    66  GLY66       0.2014
     21  C         62.5190   11.6880   -2.0780 C.2    66  GLY66       0.2639
     22  O         63.3290   11.0870   -1.3600 O.2    66  GLY66      -0.2714
     23  N         61.2110   11.7150   -1.8320 N.am   67  GLY67      -0.1939
     24  CA        60.6580   11.0780   -0.6420 C.3    67  GLY67       0.2014
     25  C         59.1570   11.3180   -0.4770 C.2    67  GLY67       0.2639
     26  O         58.5250   11.9510   -1.3150 O.2    67  GLY67      -0.2714
     27  N         58.5730   10.7810    0.5900 N.am   68  TYR68      -0.1959
     28  CA        57.1430   10.9500    0.8340 C.3    68  TYR68       0.1771
     29  C         56.9040   11.7800    2.0790 C.2    68  TYR68       0.2619
     30  O         57.6040   11.6260    3.0740 O.2    68  TYR68      -0.2715
     31  CB        56.4550    9.5930    1.0280 C.3    68  TYR68       0.0574
     32  CG        56.3610    8.7810   -0.2380 C.ar   68  TYR68      -0.0198
     33  CD1       55.3680    9.0350   -1.1780 C.ar   68  TYR68      -0.0009
     34  CD2       57.3000    7.7850   -0.5220 C.ar   68  TYR68      -0.0009
     35  CE1       55.3100    8.3190   -2.3780 C.ar   68  TYR68       0.0417
     36  CE2       57.2510    7.0630   -1.7190 C.ar   68  TYR68       0.0417
     37  CZ        56.2540    7.3400   -2.6400 C.ar   68  TYR68       0.1957
     38  OH        56.2000    6.6370   -3.8170 O.3    68  TYR68      -0.2866
     39  N         55.9130   12.6530    2.0290 N.am   69  MET69      -0.1977
     40  CA        55.6060   13.4650    3.1970 C.3    69  MET69       0.1605
     41  C         55.1370   12.6270    4.3880 C.2    69  MET69       0.2287
     42  O         55.4730   12.9390    5.5270 O.2    69  MET69      -0.2864
     43  CB        54.5480   14.5110    2.8360 C.3    69  MET69       0.0413
     44  CG        55.0800   15.5840    1.8700 C.3    69  MET69       0.0598
     45  SD        55.1800   15.0440    0.1590 S.3    69  MET69      -0.1393
     46  CE        53.3940   15.2010   -0.4170 C.3    69  MET69       0.0692
     47  N         51.0630   16.5110   -3.6490 N.3   135  ALA135     -0.1245
     48  CA        52.0250   16.1630   -4.6890 C.3   135  ALA135      0.1562
     49  C         51.3680   16.4180   -6.0300 C.2   135  ALA135      0.2260
     50  O         50.1540   16.2800   -6.1750 O.2   135  ALA135     -0.2867
     51  CB        52.4250   14.6870   -4.5860 C.3   135  ALA135      0.0290
     52  N         53.2290   11.7580  -10.4190 N.3   161  LEU161     -0.1231
     53  CA        53.5350   12.6710   -9.3130 C.3   161  LEU161      0.1693
     54  C         55.0480   12.7900   -9.1080 C.2   161  LEU161      0.2592
     55  O         55.7060   11.8510   -8.6640 O.2   161  LEU161     -0.2718
     56  CB        52.8670   12.1890   -8.0190 C.3   161  LEU161      0.0284
     57  CG        51.3640   11.9570   -8.1380 C.3   161  LEU161      0.0019
     58  CD1       50.8360   11.4980   -6.8170 C.3   161  LEU161      0.0001
     59  CD2       50.6480   13.2360   -8.5920 C.3   161  LEU161      0.0001
     60  N         55.6060   13.9590   -9.3870 N.am  162  ASN162     -0.1960
     61  CA        57.0480   14.0840   -9.2730 C.3   162  ASN162      0.1819
     62  C         57.5000   15.3080   -8.4990 C.2   162  ASN162      0.2621
     63  O         58.6690   15.6610   -8.5290 O.2   162  ASN162     -0.2715
     64  CB        57.6410   14.1190  -10.6930 C.3   162  ASN162      0.1195
     65  CG        56.8950   15.0610  -11.5820 C.2   162  ASN162      0.2630
     66  OD1       56.7670   16.2360  -11.2780 O.2   162  ASN162     -0.2716
     67  ND2       56.3700   14.5550  -12.6860 N.am  162  ASN162     -0.0877
     68  N         56.5800   15.9750   -7.8210 N.am  163  HIS163     -0.1959
     69  CA        56.9510   17.1590   -7.0700 C.3   163  HIS163      0.1787
     70  C         56.0020   17.3410   -5.8880 C.2   163  HIS163      0.2620
     71  O         54.8120   17.0460   -6.0100 O.2   163  HIS163     -0.2715
     72  CB        56.8970   18.3980   -7.9740 C.3   163  HIS163      0.0785
     73  CG        57.4800   19.6230   -7.3470 C.ar  163  HIS163      0.0821
     74  ND1       58.6780   19.6130   -6.6580 N.ar  163  HIS163     -0.2267
     75  CD2       57.0390   20.9060   -7.3050 C.ar  163  HIS163      0.1154
     76  CE1       58.9520   20.8340   -6.2260 C.ar  163  HIS163      0.1986
     77  NE2       57.9740   21.6350   -6.6050 N.ar  163  HIS163     -0.2212
     78  N         56.5260   17.8540   -4.7760 N.am  164  ALA164     -0.1977
     79  CA        55.7460   18.0570   -3.5550 C.3   164  ALA164      0.1597
     80  C         55.6600   19.5510   -3.2330 C.2   164  ALA164      0.2287
     81  O         56.6840   20.2530   -3.2370 O.2   164  ALA164     -0.2864
     82  CB        56.4070   17.3490   -2.4140 C.3   164  ALA164      0.0319
     83  N         47.8200   12.6300   -3.5220 N.3   210  LEU210     -0.1245
     84  CA        48.7140   12.2170   -2.4380 C.3   210  LEU210      0.1561
     85  C         48.8350   13.3550   -1.4450 C.2   210  LEU210      0.2260
     86  O         49.9340   13.8470   -1.1960 O.2   210  LEU210     -0.2867
     87  CB        50.1070   11.8640   -2.9970 C.3   210  LEU210      0.0270
     88  CG        51.0460   11.0310   -2.1040 C.3   210  LEU210      0.0019
     89  CD1       50.5010    9.6220   -1.9100 C.3   210  LEU210      0.0001
     90  CD2       52.4350   10.9670   -2.7500 C.3   210  LEU210      0.0001
@<TRIPOS>BOND
     1    67    65   am
     2    65    66    2
     3    65    64    1
     4    64    61    1
     5    52    53    1
     6    60    61    1
     7    60    54   am
     8    53    54    1
     9    53    56    1
    10    61    62    1
    11    54    55    2
    12    59    57    1
    13    63    62    2
    14    62    68   am
    15    57    56    1
    16    57    58    1
    17    72    73    1
    18    72    69    1
    19    68    69    1
    20    73    75   ar
    21    73    74   ar
    22    75    77   ar
    23    69    70    1
    24    74    76   ar
    25    77    76   ar
    26    50    49    2
    27    49    48    1
    28    71    70    2
    29    70    78   am
    30    18    17    2
    31    78    79    1
    32    48    51    1
    33    48    47    1
    34    17    16    1
    35    17    19   am
    36    16    15    1
    37     6     5    1
    38    38    37    1
    39    79    80    1
    40    79    82    1
    41    83    84    1
    42    14    12   ar
    43     5     2    1
    44    19    20    1
    45    20    21    1
    46    81    80    2
    47    87    84    1
    48    87    88    1
    49    90    88    1
    50    37    35   ar
    51    37    36   ar
    52    84    85    1
    53    35    33   ar
    54    12    11    1
    55    12    13   ar
    56    88    89    1
    57    21    23   am
    58    21    22    2
    59     1     2    1
    60     2     3    1
    61    23    24    1
    62    36    34   ar
    63    11     8    1
    64    85    86    2
    65    10     9    2
    66    26    25    2
    67    33    32   ar
    68     3     4    2
    69    24    25    1
    70    34    32   ar
    71    25    27   am
    72    46    45    1
    73     9     8    1
    74     8     7    1
    75    32    31    1
    76    45    44    1
    77    27    28    1
    78    28    31    1
    79    28    29    1
    80    44    43    1
    81    39    29   am
    82    39    40    1
    83    29    30    2
    84    43    40    1
    85    40    41    1
    86    41    42    2
