@<TRIPOS>MOLECULE
tmp/1u9zC01.pdb
 114 111 0 0 0
SMALL
GASTEIGER

@<TRIPOS>ATOM
      1  N         -2.8790   70.6580   46.9250 N.3    87  TYR87      -0.1241
      2  CA        -1.7280   69.9610   46.3680 C.3    87  TYR87       0.1605
      3  C         -1.8330   70.1270   44.8470 C.2    87  TYR87       0.2264
      4  O         -2.8110   69.6940   44.2420 O.2    87  TYR87      -0.2867
      5  CB        -1.7690   68.4810   46.7210 C.3    87  TYR87       0.0534
      6  CG        -0.6430   67.6780   46.1070 C.ar   87  TYR87      -0.0201
      7  CD1        0.6410   67.7430   46.6220 C.ar   87  TYR87      -0.0009
      8  CD2       -0.8690   66.8450   45.0170 C.ar   87  TYR87      -0.0009
      9  CE1        1.6640   66.9990   46.0750 C.ar   87  TYR87       0.0417
     10  CE2        0.1450   66.1000   44.4660 C.ar   87  TYR87       0.0417
     11  CZ         1.4090   66.1810   45.0040 C.ar   87  TYR87       0.1957
     12  OH         2.4330   65.4270   44.4900 O.3    87  TYR87      -0.2866
     13  N          1.9390   67.7280   39.1630 N.3    90  TYR90      -0.1241
     14  CA         2.8920   68.0630   38.1110 C.3    90  TYR90       0.1605
     15  C          3.8090   69.2620   38.3590 C.2    90  TYR90       0.2264
     16  O          4.5030   69.7190   37.4480 O.2    90  TYR90      -0.2867
     17  CB         2.1260   68.2350   36.7960 C.3    90  TYR90       0.0534
     18  CG         1.5290   66.9380   36.3050 C.ar   90  TYR90      -0.0201
     19  CD1        2.3310   65.9640   35.7310 C.ar   90  TYR90      -0.0009
     20  CD2        0.1770   66.6600   36.4650 C.ar   90  TYR90      -0.0009
     21  CE1        1.8130   64.7440   35.3290 C.ar   90  TYR90       0.0417
     22  CE2       -0.3530   65.4340   36.0670 C.ar   90  TYR90       0.0417
     23  CZ         0.4780   64.4820   35.4990 C.ar   90  TYR90       0.1957
     24  OH        -0.0110   63.2640   35.1090 O.3    90  TYR90      -0.2866
     25  N          6.5090   69.2850   40.0630 N.3    92  ARG92      -0.1231
     26  CA         7.9130   68.9080   40.0760 C.3    92  ARG92       0.1694
     27  C          8.5410   68.9660   38.6820 C.2    92  ARG92       0.2592
     28  O          9.7410   68.7640   38.5440 O.2    92  ARG92      -0.2718
     29  CB         8.1090   67.5130   40.6440 C.3    92  ARG92       0.0321
     30  CG         7.9160   67.3970   42.1200 C.3    92  ARG92       0.0489
     31  CD         8.6780   66.1780   42.6170 C.3    92  ARG92       0.2205
     32  NE         7.9680   65.4730   43.6860 N.pl3  92  ARG92      -0.0865
     33  CZ         8.4340   64.3920   44.3130 C.cat  92  ARG92       0.5346
     34  NH1        9.6210   63.8790   43.9880 N.pl3  92  ARG92       0.1354
     35  NH2        7.7020   63.8140   45.2580 N.pl3  92  ARG92       0.1354
     36  N          7.7380   69.2060   37.6490 N.am   93  GLN93      -0.1966
     37  CA         8.2810   69.3350   36.3040 C.3    93  GLN93       0.1733
     38  C          8.5450   70.8200   36.0160 C.2    93  GLN93       0.2616
     39  O          7.8930   71.4310   35.1620 O.2    93  GLN93      -0.2715
     40  CB         7.3150   68.7840   35.2610 C.3    93  GLN93       0.0408
     41  CG         7.5820   67.3530   34.8550 C.3    93  GLN93       0.0908
     42  CD         9.0290   67.0930   34.4650 C.2    93  GLN93       0.2608
     43  OE1        9.8750   66.8180   35.3130 O.2    93  GLN93      -0.2717
     44  NE2        9.3160   67.1790   33.1760 N.am   93  GLN93      -0.0878
     45  N          9.4960   71.3920   36.7470 N.am   94  ASP94      -0.1957
     46  CA         9.8680   72.7890   36.6040 C.3    94  ASP94       0.1840
     47  C         10.3690   73.1230   35.2130 C.2    94  ASP94       0.2621
     48  O          9.9350   74.0850   34.5810 O.2    94  ASP94      -0.2715
     49  CB        11.0190   73.1350   37.5420 C.3    94  ASP94       0.1450
     50  CG        10.6770   72.9560   38.9770 C.2    94  ASP94       0.3671
     51  OD1        9.7040   73.6030   39.4190 O.co2  94  ASP94      -0.2456
     52  OD2       11.3860   72.1800   39.6660 O.co2  94  ASP94      -0.2456
     53  N         11.3100   72.3100   34.7610 N.am   95  LYS95      -0.1977
     54  CA        11.9850   72.5490   33.5050 C.3    95  LYS95       0.1596
     55  C         12.2830   71.2730   32.7320 C.2    95  LYS95       0.2287
     56  O         11.8890   70.1810   33.1400 O.2    95  LYS95      -0.2864
     57  CB        13.2910   73.2520   33.8480 C.3    95  LYS95       0.0298
     58  CG        14.0310   72.5170   34.9900 C.3    95  LYS95       0.0038
     59  CD        14.9540   73.4400   35.8010 C.3    95  LYS95       0.0206
     60  CE        14.2300   74.1970   36.9300 C.3    95  LYS95       0.1093
     61  NZ        14.1850   73.4390   38.2320 N.3    95  LYS95      -0.1314
     62  N         14.5300   68.6090   32.1350 N.3    97  PHE97      -0.1227
     63  CA        15.6960   67.9850   32.7380 C.3    97  PHE97       0.1736
     64  C         16.4310   67.1140   31.7210 C.2    97  PHE97       0.2595
     65  O         17.4440   66.4890   32.0450 O.2    97  PHE97      -0.2718
     66  CB        15.2910   67.1320   33.9390 C.3    97  PHE97       0.0547
     67  CG        14.6410   67.9120   35.0420 C.ar   97  PHE97      -0.0202
     68  CD1       13.3260   68.3590   34.9190 C.ar   97  PHE97      -0.0042
     69  CD2       15.3420   68.2030   36.2120 C.ar   97  PHE97      -0.0042
     70  CE1       12.7210   69.0790   35.9420 C.ar   97  PHE97      -0.0003
     71  CE2       14.7450   68.9270   37.2470 C.ar   97  PHE97      -0.0003
     72  CZ        13.4350   69.3640   37.1120 C.ar   97  PHE97      -0.0000
     73  N         15.9150   67.0800   30.4940 N.am   98  ASN98      -0.1974
     74  CA        16.5000   66.2880   29.4110 C.3    98  ASN98       0.1688
     75  C         15.8990   66.7520   28.1000 C.2    98  ASN98       0.2292
     76  O         14.7820   67.2730   28.0520 O.2    98  ASN98      -0.2864
     77  CB        16.1950   64.7910   29.5830 C.3    98  ASN98       0.1181
     78  CG        17.0080   64.1460   30.6900 C.2    98  ASN98       0.2629
     79  OD1       18.1760   63.7930   30.4960 O.2    98  ASN98      -0.2716
     80  ND2       16.3980   63.9980   31.8630 N.am   98  ASN98      -0.0877
     81  N         11.9220   66.2880   26.8670 N.3   101  GLU101     -0.1245
     82  CA        10.9740   66.2210   27.9650 C.3   101  GLU101      0.1567
     83  C          9.9750   67.3540   27.8510 C.2   101  GLU101      0.2260
     84  O         10.2430   68.3790   27.2290 O.2   101  GLU101     -0.2867
     85  CB        11.6710   66.3220   29.3210 C.3   101  GLU101      0.0388
     86  CG        12.6130   65.1850   29.6580 C.3   101  GLU101      0.1160
     87  CD        12.9850   65.1510   31.1390 C.2   101  GLU101      0.3649
     88  OE1       12.9800   66.2150   31.7920 O.co2 101  GLU101     -0.2457
     89  OE2       13.2990   64.0590   31.6560 O.co2 101  GLU101     -0.2457
     90  N          6.1260   72.8070   44.9360 N.3   125  HIS125     -0.1226
     91  CA         7.4900   72.2760   44.9200 C.3   125  HIS125      0.1752
     92  C          8.4550   73.4230   44.6260 C.2   125  HIS125      0.2595
     93  O          9.5520   73.4850   45.1930 O.2   125  HIS125     -0.2718
     94  CB         7.6170   71.1880   43.8400 C.3   125  HIS125      0.0759
     95  CG         9.0230   70.7230   43.5970 C.ar  125  HIS125      0.0818
     96  ND1        9.7390   69.9850   44.5190 N.ar  125  HIS125     -0.2268
     97  CD2        9.8410   70.8760   42.5230 C.ar  125  HIS125      0.1154
     98  CE1       10.9340   69.6990   44.0230 C.ar  125  HIS125      0.1986
     99  NE2       11.0230   70.2280   42.8130 N.ar  125  HIS125     -0.2212
    100  N          8.0210   74.3300   43.7480 N.am  126  GLU126     -0.1979
    101  CA         8.8120   75.4850   43.3180 C.3   126  GLU126      0.1602
    102  C          7.8800   76.6370   43.0410 C.2   126  GLU126      0.2287
    103  O          6.8940   76.4830   42.3180 O.2   126  GLU126     -0.2864
    104  CB         9.5680   75.1470   42.0300 C.3   126  GLU126      0.0415
    105  CG        10.8700   74.3960   42.2520 C.3   126  GLU126      0.1163
    106  CD        12.0450   75.3500   42.3120 C.2   126  GLU126      0.3649
    107  OE1       11.7980   76.5700   42.5360 O.co2 126  GLU126     -0.2457
    108  OE2       13.2010   74.8800   42.1340 O.co2 126  GLU126     -0.2457
    109  N          7.6270   61.5350   50.0810 N.3   206  SER206     -0.1217
    110  CA         7.1020   60.6280   49.0660 C.3   206  SER206      0.1889
    111  C          7.3800   59.1650   49.3970 C.2   206  SER206      0.2288
    112  O          6.5240   58.4700   49.9280 O.2   206  SER206     -0.2866
    113  CB         7.7130   60.9890   47.7090 C.3   206  SER206      0.2089
    114  OG         7.1620   60.2270   46.6520 O.3   206  SER206     -0.2183
@<TRIPOS>BOND
     1    81    82    1
     2    84    83    2
     3    83    82    1
     4    82    85    1
     5    76    75    2
     6    75    74    1
     7    85    86    1
     8    74    77    1
     9    74    73    1
    10    77    78    1
    11    86    87    1
    12    73    64   am
    13    79    78    2
    14    78    80   am
    15    87    89   ar
    16    87    88   ar
    17    64    65    2
    18    64    63    1
    19    62    63    1
    20    55    56    2
    21    55    54    1
    22    63    66    1
    23    44    42   am
    24    54    57    1
    25    54    53    1
    26    57    58    1
    27    66    67    1
    28    42    41    1
    29    42    43    2
    30    48    47    2
    31    53    47   am
    32    41    40    1
    33    68    67   ar
    34    68    70   ar
    35    58    59    1
    36    67    69   ar
    37    24    23    1
    38    39    38    2
    39    47    46    1
    40    40    37    1
    41    21    23   ar
    42    21    19   ar
    43    23    22   ar
    44    19    18   ar
    45    59    60    1
    46    70    72   ar
    47    38    37    1
    48    38    45   am
    49    22    20   ar
    50    69    71   ar
    51    37    36    1
    52    18    20   ar
    53    18    17    1
    54    46    45    1
    55    46    49    1
    56    17    14    1
    57    60    61    1
    58    72    71   ar
    59    16    15    2
    60    49    50    1
    61    36    27   am
    62    14    15    1
    63    14    13    1
    64    28    27    2
    65    27    26    1
    66    50    51   ar
    67    50    52   ar
    68    25    26    1
    69    26    29    1
    70    29    30    1
    71   104   105    1
    72   104   101    1
    73    30    31    1
    74   108   106   ar
    75   105   106    1
    76   106   107   ar
    77   103   102    2
    78    97    99   ar
    79    97    95   ar
    80    31    32    1
    81    99    98   ar
    82   102   101    1
    83   101   100    1
    84    95    94    1
    85    95    96   ar
    86    32    33    2
    87   100    92   am
    88    94    91    1
    89    34    33    1
    90    98    96   ar
    91     4     3    2
    92    33    35    1
    93    10    11   ar
    94    10     8   ar
    95    12    11    1
    96    92    91    1
    97    92    93    2
    98     3     2    1
    99    91    90    1
   100    11     9   ar
   101     8     6   ar
   102     9     7   ar
   103     6     7   ar
   104     6     5    1
   105     2     5    1
   106     2     1    1
   107   114   113    1
   108   113   110    1
   109   110   111    1
   110   110   109    1
   111   111   112    2
