@<TRIPOS>MOLECULE
tmp/1u9zC00.pdb
 106 102 0 0 0
SMALL
GASTEIGER

@<TRIPOS>ATOM
      1  N          6.5090   69.2850   40.0630 N.3    92  ARG92      -0.1245
      2  CA         7.9130   68.9080   40.0760 C.3    92  ARG92       0.1563
      3  C          8.5410   68.9660   38.6820 C.2    92  ARG92       0.2260
      4  O          9.7410   68.7640   38.5440 O.2    92  ARG92      -0.2867
      5  CB         8.1090   67.5130   40.6440 C.3    92  ARG92       0.0307
      6  CG         7.9160   67.3970   42.1200 C.3    92  ARG92       0.0489
      7  CD         8.6780   66.1780   42.6170 C.3    92  ARG92       0.2205
      8  NE         7.9680   65.4730   43.6860 N.pl3  92  ARG92      -0.0865
      9  CZ         8.4340   64.3920   44.3130 C.cat  92  ARG92       0.5346
     10  NH1        9.6210   63.8790   43.9880 N.pl3  92  ARG92       0.1354
     11  NH2        7.7020   63.8140   45.2580 N.pl3  92  ARG92       0.1354
     12  N          6.1260   72.8070   44.9360 N.3   125  HIS125     -0.1241
     13  CA         7.4900   72.2760   44.9200 C.3   125  HIS125      0.1621
     14  C          8.4550   73.4230   44.6260 C.2   125  HIS125      0.2264
     15  O          9.5520   73.4850   45.1930 O.2   125  HIS125     -0.2867
     16  CB         7.6170   71.1880   43.8400 C.3   125  HIS125      0.0745
     17  CG         9.0230   70.7230   43.5970 C.ar  125  HIS125      0.0817
     18  ND1        9.7390   69.9850   44.5190 N.ar  125  HIS125     -0.2268
     19  CD2        9.8410   70.8760   42.5230 C.ar  125  HIS125      0.1154
     20  CE1       10.9340   69.6990   44.0230 C.ar  125  HIS125      0.1986
     21  NE2       11.0230   70.2280   42.8130 N.ar  125  HIS125     -0.2212
     22  N         17.2880   68.4810   53.8260 N.3   163  ASP163     -0.1239
     23  CA        18.2800   68.9250   52.8590 C.3   163  ASP163      0.1674
     24  C         18.3790   70.4440   52.9020 C.2   163  ASP163      0.2266
     25  O         17.4560   71.1160   53.3670 O.2   163  ASP163     -0.2867
     26  CB        17.9120   68.4450   51.4450 C.3   163  ASP163      0.1410
     27  CG        16.4640   68.7680   51.0580 C.2   163  ASP163      0.3668
     28  OD1       16.0900   69.9660   51.0680 O.co2 163  ASP163     -0.2456
     29  OD2       15.7040   67.8190   50.7320 O.co2 163  ASP163     -0.2456
     30  N         17.8820   72.5830   50.8150 N.3   165  GLY165     -0.1210
     31  CA        16.7840   73.2520   50.1330 C.3   165  GLY165      0.1956
     32  C         15.4990   73.3730   50.9300 C.2   165  GLY165      0.2611
     33  O         14.5910   74.1130   50.5420 O.2   165  GLY165     -0.2717
     34  N         15.4210   72.6410   52.0380 N.am  166  ALA166     -0.1979
     35  CA        14.2560   72.6580   52.9160 C.3   166  ALA166      0.1597
     36  C         14.5370   73.5800   54.0990 C.2   166  ALA166      0.2287
     37  O         13.7420   73.6690   55.0410 O.2   166  ALA166     -0.2864
     38  CB        13.9690   71.2440   53.4200 C.3   166  ALA166      0.0319
     39  N          9.7870   69.1900   56.1670 N.3   202  ASP202     -0.1225
     40  CA        10.1210   69.2360   54.7430 C.3   202  ASP202      0.1805
     41  C          8.7880   69.4690   54.0360 C.2   202  ASP202      0.2598
     42  O          7.7370   69.3330   54.6550 O.2   202  ASP202     -0.2718
     43  CB        10.7410   67.8970   54.3190 C.3   202  ASP202      0.1424
     44  CG        11.5330   67.9930   53.0190 C.2   202  ASP202      0.3668
     45  OD1       12.2530   67.0180   52.7040 O.co2 202  ASP202     -0.2456
     46  OD2       11.4360   69.0290   52.3170 O.co2 202  ASP202     -0.2456
     47  N          8.7980   69.8200   52.7610 N.am  203  ASP203     -0.1960
     48  CA         7.5250   70.0530   52.1090 C.3   203  ASP203      0.1840
     49  C          6.8190   68.7660   51.7120 C.2   203  ASP203      0.2622
     50  O          5.6010   68.6680   51.8350 O.2   203  ASP203     -0.2715
     51  CB         7.7030   70.9760   50.8980 C.3   203  ASP203      0.1450
     52  CG         8.5640   70.3720   49.8150 C.2   203  ASP203      0.3671
     53  OD1        9.5210   69.6270   50.1490 O.co2 203  ASP203     -0.2456
     54  OD2        8.2880   70.6630   48.6280 O.co2 203  ASP203     -0.2456
     55  N          7.5740   67.7700   51.2560 N.am  204  ILE204     -0.1963
     56  CA         6.9790   66.4950   50.8520 C.3   204  ILE204      0.1727
     57  C          7.7400   65.2770   51.3790 C.2   204  ILE204      0.2616
     58  O          8.9670   65.3020   51.5310 O.2   204  ILE204     -0.2715
     59  CB         6.9320   66.3360   49.2950 C.3   204  ILE204      0.0290
     60  CG1        6.2600   67.5380   48.6430 C.3   204  ILE204      0.0022
     61  CG2        6.1510   65.0830   48.9150 C.3   204  ILE204      0.0023
     62  CD1        6.1860   67.4450   47.1160 C.3   204  ILE204      0.0001
     63  N          6.9930   64.2140   51.6610 N.am  205  ILE205     -0.1963
     64  CA         7.5560   62.9290   52.0790 C.3   205  ILE205      0.1727
     65  C          6.8900   61.9550   51.1030 C.2   205  ILE205      0.2617
     66  O          5.7190   61.6100   51.2700 O.2   205  ILE205     -0.2715
     67  CB         7.1470   62.5140   53.5070 C.3   205  ILE205      0.0290
     68  CG1        7.7910   63.4380   54.5340 C.3   205  ILE205      0.0022
     69  CG2        7.5760   61.0760   53.7670 C.3   205  ILE205      0.0023
     70  CD1        7.5170   63.0300   55.9710 C.3   205  ILE205      0.0001
     71  N          7.6270   61.5350   50.0810 N.am  206  SER206     -0.1936
     72  CA         7.1020   60.6280   49.0660 C.3   206  SER206      0.2055
     73  C          7.3800   59.1650   49.3970 C.2   206  SER206      0.2644
     74  O          6.5240   58.4700   49.9280 O.2   206  SER206     -0.2714
     75  CB         7.7130   60.9890   47.7090 C.3   206  SER206      0.2130
     76  OG         7.1620   60.2270   46.6520 O.3   206  SER206     -0.2179
     77  N          8.5800   58.6960   49.0790 N.am  207  THR207     -0.1936
     78  CA         8.9530   57.3090   49.3560 C.3   207  THR207      0.2028
     79  C          9.3810   57.2030   50.8150 C.2   207  THR207      0.2643
     80  O          9.3340   56.1290   51.4190 O.2   207  THR207     -0.2714
     81  CB        10.1330   56.8630   48.4750 C.3   207  THR207      0.1808
     82  OG1       11.3220   57.5470   48.8940 O.3   207  THR207     -0.2208
     83  CG2        9.8590   57.1990   47.0080 C.3   207  THR207      0.0379
     84  N          9.8080   58.3330   51.3700 N.am  208  GLY208     -0.1939
     85  CA        10.2460   58.3620   52.7540 C.3   208  GLY208      0.2014
     86  C         11.7430   58.1550   52.9430 C.2   208  GLY208      0.2639
     87  O         12.2280   58.1190   54.0760 O.2   208  GLY208     -0.2714
     88  N         12.4760   58.0220   51.8370 N.am  209  GLY209     -0.1939
     89  CA        13.9100   57.8120   51.9060 C.3   209  GLY209      0.2014
     90  C         14.6790   58.9820   52.5000 C.2   209  GLY209      0.2640
     91  O         15.6470   58.7830   53.2430 O.2   209  GLY209     -0.2714
     92  N         14.2660   60.2060   52.1780 N.am  210  THR210     -0.1936
     93  CA        14.9400   61.3860   52.7140 C.3   210  THR210      0.2028
     94  C         14.8560   61.4380   54.2410 C.2   210  THR210      0.2642
     95  O         15.8820   61.5480   54.9100 O.2   210  THR210     -0.2714
     96  CB        14.3400   62.6740   52.1450 C.3   210  THR210      0.1808
     97  OG1       14.4360   62.6490   50.7130 O.3   210  THR210     -0.2208
     98  CG2       15.0720   63.8830   52.6940 C.3   210  THR210      0.0379
     99  N         13.6410   61.3580   54.7840 N.am  211  MET211     -0.1976
    100  CA        13.4490   61.3890   56.2300 C.3   211  MET211      0.1605
    101  C         14.0220   60.1530   56.9180 C.2   211  MET211      0.2287
    102  O         14.7460   60.2810   57.9130 O.2   211  MET211     -0.2864
    103  CB        11.9680   61.5120   56.5810 C.3   211  MET211      0.0413
    104  CG        11.4010   62.8820   56.3680 C.3   211  MET211      0.0598
    105  SD        11.9450   64.0220   57.6090 S.3   211  MET211     -0.1393
    106  CE        10.9700   65.3640   57.1910 C.3   211  MET211      0.0692
@<TRIPOS>BOND
     1     4     3    2
     2     3     2    1
     3     1     2    1
     4     2     5    1
     5     5     6    1
     6     6     7    1
     7    19    21   ar
     8    19    17   ar
     9     7     8    1
    10    21    20   ar
    11    17    16    1
    12    17    18   ar
    13     8     9    2
    14    16    13    1
    15    10     9    1
    16    20    18   ar
    17     9    11    1
    18    14    13    1
    19    14    15    2
    20    13    12    1
    21    76    75    1
    22    83    81    1
    23    62    60    1
    24    75    72    1
    25    81    82    1
    26    81    78    1
    27    54    52   ar
    28    60    59    1
    29    61    59    1
    30    72    73    1
    31    72    71    1
    32    77    78    1
    33    77    73   am
    34    59    56    1
    35    78    79    1
    36    73    74    2
    37    52    53   ar
    38    52    51    1
    39    71    65   am
    40    31    30    1
    41    31    32    1
    42    33    32    2
    43    97    96    1
    44    29    27   ar
    45    79    84   am
    46    79    80    2
    47    56    55    1
    48    56    57    1
    49    51    48    1
    50    32    34   am
    51    27    28   ar
    52    27    26    1
    53    65    66    2
    54    65    64    1
    55    55    49   am
    56    84    85    1
    57    57    58    2
    58    57    63   am
    59    26    23    1
    60    63    64    1
    61    49    50    2
    62    49    48    1
    63    88    89    1
    64    88    86   am
    65    89    90    1
    66    34    35    1
    67    64    67    1
    68    48    47    1
    69    96    98    1
    70    96    93    1
    71    92    90   am
    72    92    93    1
    73    46    44   ar
    74    90    91    2
    75    45    44   ar
    76    93    94    1
    77    85    86    1
    78    47    41   am
    79    23    24    1
    80    23    22    1
    81    24    25    2
    82    35    38    1
    83    35    36    1
    84    86    87    2
    85    44    43    1
    86    67    69    1
    87    67    68    1
    88    41    42    2
    89    41    40    1
    90    36    37    2
    91    94    99   am
    92    94    95    2
    93    43    40    1
    94    68    70    1
    95    40    39    1
    96    99   100    1
    97   100   103    1
    98   100   101    1
    99   104   103    1
   100   104   105    1
   101   101   102    2
   102   106   105    1
