@<TRIPOS>MOLECULE
tmp/1ua0C01.pdb
 105 100 0 0 0
SMALL
GASTEIGER

@<TRIPOS>ATOM
      1  N         14.0840   47.0420   52.6820 N.3   408  GLN408     -0.1245
      2  CA        13.5160   45.7750   53.1210 C.3   408  GLN408      0.1566
      3  C         12.1240   45.5590   52.5040 C.2   408  GLN408      0.2260
      4  O         11.7930   44.4510   52.0810 O.2   408  GLN408     -0.2867
      5  CB        13.4070   45.7400   54.6450 C.3   408  GLN408      0.0367
      6  CG        13.0600   44.3620   55.2020 C.3   408  GLN408      0.0905
      7  CD        14.2870   43.4790   55.3880 C.2   408  GLN408      0.2608
      8  OE1       14.9170   43.4850   56.4520 O.2   408  GLN408     -0.2717
      9  NE2       14.6410   42.7260   54.3490 N.am  408  GLN408     -0.0878
     10  N         12.4490   44.4240   48.9810 N.3   411  ALA411     -0.1231
     11  CA        12.8210   43.0180   48.8950 C.3   411  ALA411      0.1694
     12  C         11.5790   42.1490   49.1000 C.2   411  ALA411      0.2591
     13  O         11.4260   41.1060   48.4640 O.2   411  ALA411     -0.2718
     14  CB        13.8880   42.6860   49.9460 C.3   411  ALA411      0.0304
     15  N         10.6960   42.5810   49.9940 N.am  412  VAL412     -0.1980
     16  CA         9.4610   41.8470   50.2480 C.3   412  VAL412      0.1595
     17  C          8.5970   41.8660   48.9870 C.2   412  VAL412      0.2287
     18  O          8.0400   40.8390   48.5920 O.2   412  VAL412     -0.2864
     19  CB         8.6640   42.4730   51.4130 C.3   412  VAL412      0.0276
     20  CG1        7.2870   41.8180   51.5300 C.3   412  VAL412      0.0022
     21  CG2        9.4340   42.2990   52.7120 C.3   412  VAL412      0.0022
     22  N          9.4860   42.0960   45.8380 N.3   414  PHE414     -0.1227
     23  CA        10.0280   41.1820   44.8300 C.3   414  PHE414      0.1736
     24  C          9.7130   39.7480   45.2580 C.2   414  PHE414      0.2596
     25  O          9.4040   38.8880   44.4310 O.2   414  PHE414     -0.2718
     26  CB        11.5460   41.3570   44.6960 C.3   414  PHE414      0.0547
     27  CG        11.9540   42.4510   43.7460 C.ar  414  PHE414     -0.0202
     28  CD1       12.9920   43.3160   44.0680 C.ar  414  PHE414     -0.0042
     29  CD2       11.3240   42.5910   42.5070 C.ar  414  PHE414     -0.0042
     30  CE1       13.4080   44.3120   43.1690 C.ar  414  PHE414     -0.0003
     31  CE2       11.7280   43.5810   41.5990 C.ar  414  PHE414     -0.0003
     32  CZ        12.7720   44.4430   41.9300 C.ar  414  PHE414     -0.0000
     33  N          9.7920   39.5020   46.5620 N.am  415  GLY415     -0.1957
     34  CA         9.5000   38.1810   47.0800 C.3   415  GLY415      0.1869
     35  C          8.0670   37.7690   46.7870 C.2   415  GLY415      0.2309
     36  O          7.8140   36.6390   46.3580 O.2   415  GLY415     -0.2863
     37  N          7.8090   37.0150   43.0710 N.3   418  TYR418     -0.1227
     38  CA         8.5120   35.8050   42.6690 C.3   418  TYR418      0.1736
     39  C          7.8440   34.5410   43.2010 C.2   418  TYR418      0.2596
     40  O          8.1350   33.4400   42.7390 O.2   418  TYR418     -0.2718
     41  CB         9.9730   35.8410   43.1310 C.3   418  TYR418      0.0548
     42  CG        10.8220   36.9000   42.4600 C.ar  418  TYR418     -0.0200
     43  CD1       10.3780   37.5630   41.3170 C.ar  418  TYR418     -0.0009
     44  CD2       12.0870   37.2180   42.9580 C.ar  418  TYR418     -0.0009
     45  CE1       11.1720   38.5170   40.6810 C.ar  418  TYR418      0.0417
     46  CE2       12.8930   38.1700   42.3290 C.ar  418  TYR418      0.0417
     47  CZ        12.4290   38.8130   41.1910 C.ar  418  TYR418      0.1957
     48  OH        13.2300   39.7290   40.5510 O.3   418  TYR418     -0.2866
     49  N          6.9570   34.7020   44.1780 N.am  419  GLY419     -0.1942
     50  CA         6.2670   33.5550   44.7310 C.3   419  GLY419      0.2014
     51  C          6.7160   33.1550   46.1220 C.2   419  GLY419      0.2638
     52  O          7.8300   32.6620   46.3070 O.2   419  GLY419     -0.2714
     53  N          5.8450   33.3770   47.1040 N.am  420  ILE420     -0.1977
     54  CA         6.1360   33.0210   48.4900 C.3   420  ILE420      0.1596
     55  C          5.6380   31.5960   48.7050 C.2   420  ILE420      0.2287
     56  O          4.4990   31.3860   49.1220 O.2   420  ILE420     -0.2864
     57  CB         5.3940   33.9400   49.4950 C.3   420  ILE420      0.0276
     58  CG1        5.7960   35.4010   49.2840 C.3   420  ILE420      0.0022
     59  CG2        5.6980   33.4980   50.9200 C.3   420  ILE420      0.0022
     60  CD1        7.2520   35.6870   49.5380 C.3   420  ILE420      0.0001
     61  N         13.6790   31.7520   50.3450 N.3   425  LEU425     -0.1231
     62  CA        13.5960   33.0260   51.0600 C.3   425  LEU425      0.1693
     63  C         14.4110   33.0470   52.3560 C.2   425  LEU425      0.2591
     64  O         14.3080   32.1230   53.1630 O.2   425  LEU425     -0.2718
     65  CB        12.1270   33.3440   51.3820 C.3   425  LEU425      0.0284
     66  CG        11.0080   32.4390   50.8330 C.3   425  LEU425      0.0019
     67  CD1        9.6780   32.8890   51.4130 C.3   425  LEU425      0.0001
     68  CD2       10.9750   32.4720   49.3060 C.3   425  LEU425      0.0001
     69  N         15.2110   34.1020   52.5440 N.am  426  ALA426     -0.1980
     70  CA        16.0460   34.2930   53.7410 C.3   426  ALA426      0.1597
     71  C         17.4220   34.9030   53.4800 C.2   426  ALA426      0.2287
     72  O         17.7040   36.0150   53.9220 O.2   426  ALA426     -0.2864
     73  CB        16.2270   32.9790   54.4990 C.3   426  ALA426      0.0319
     74  N         19.3750   36.9520   52.6550 N.3   428  ASN428     -0.1240
     75  CA        19.7720   38.2990   53.0670 C.3   428  ASN428      0.1653
     76  C         19.8330   38.4140   54.5890 C.2   428  ASN428      0.2266
     77  O         19.6590   39.4940   55.1550 O.2   428  ASN428     -0.2867
     78  CB        18.7980   39.3340   52.4980 C.3   428  ASN428      0.1155
     79  CG        19.1220   39.7060   51.0610 C.2   428  ASN428      0.2627
     80  OD1       19.9210   39.0400   50.3990 O.2   428  ASN428     -0.2716
     81  ND2       18.4970   40.7710   50.5700 N.am  428  ASN428     -0.0877
     82  N         10.6930   36.5780   59.0780 N.3   436  ALA436     -0.1245
     83  CA        10.4030   36.6970   57.6550 C.3   436  ALA436      0.1562
     84  C          8.9410   36.3070   57.4760 C.2   436  ALA436      0.2260
     85  O          8.2100   36.9150   56.6940 O.2   436  ALA436     -0.2867
     86  CB        11.2990   35.7660   56.8510 C.3   436  ALA436      0.0290
     87  N          6.7060   39.1630   58.7510 N.3   439  PHE439     -0.1227
     88  CA         6.5630   40.2750   57.8180 C.3   439  PHE439      0.1736
     89  C          5.6230   39.8930   56.6780 C.2   439  PHE439      0.2595
     90  O          4.7380   40.6670   56.3110 O.2   439  PHE439     -0.2718
     91  CB         7.9300   40.7070   57.2690 C.3   439  PHE439      0.0547
     92  CG         8.8350   41.3220   58.3090 C.ar  439  PHE439     -0.0202
     93  CD1        8.3110   42.1370   59.3130 C.ar  439  PHE439     -0.0042
     94  CD2       10.2090   41.0970   58.2800 C.ar  439  PHE439     -0.0042
     95  CE1        9.1420   42.7180   60.2750 C.ar  439  PHE439     -0.0003
     96  CE2       11.0490   41.6740   59.2360 C.ar  439  PHE439     -0.0003
     97  CZ        10.5140   42.4860   60.2360 C.ar  439  PHE439     -0.0000
     98  N          5.8110   38.6950   56.1270 N.am  440  ILE440     -0.1980
     99  CA         4.9610   38.2110   55.0450 C.3   440  ILE440      0.1595
    100  C          3.5230   38.1830   55.5500 C.2   440  ILE440      0.2287
    101  O          2.5880   38.5520   54.8400 O.2   440  ILE440     -0.2864
    102  CB         5.3640   36.7900   54.6080 C.3   440  ILE440      0.0276
    103  CG1        6.7480   36.8150   53.9580 C.3   440  ILE440      0.0022
    104  CG2        4.3340   36.2300   53.6470 C.3   440  ILE440      0.0022
    105  CD1        6.8520   37.7460   52.7660 C.3   440  ILE440      0.0001
@<TRIPOS>BOND
     1    48    47    1
     2    45    47   ar
     3    45    43   ar
     4    47    46   ar
     5    43    42   ar
     6    31    32   ar
     7    31    29   ar
     8    32    30   ar
     9    46    44   ar
    10    42    44   ar
    11    42    41    1
    12    29    27   ar
    13    38    37    1
    14    38    41    1
    15    38    39    1
    16    40    39    2
    17    30    28   ar
    18    39    49   am
    19    27    28   ar
    20    27    26    1
    21    49    50    1
    22    25    24    2
    23    26    23    1
    24    50    51    1
    25    23    24    1
    26    23    22    1
    27    24    33   am
    28    51    52    2
    29    51    53   am
    30    36    35    2
    31    33    34    1
    32    35    34    1
    33    53    54    1
    34    13    12    2
    35    54    55    1
    36    54    57    1
    37    18    17    2
    38    55    56    2
    39    11    10    1
    40    11    12    1
    41    11    14    1
    42    17    16    1
    43    12    15   am
    44    58    57    1
    45    58    60    1
    46    68    66    1
    47    57    59    1
    48    15    16    1
    49    16    19    1
    50    61    62    1
    51    80    79    2
    52    81    79   am
    53    66    65    1
    54    66    67    1
    55    62    65    1
    56    62    63    1
    57    79    78    1
    58    19    20    1
    59    19    21    1
    60     4     3    2
    61    63    69   am
    62    63    64    2
    63    78    75    1
    64     3     2    1
    65    69    70    1
    66    74    75    1
    67     1     2    1
    68   105   103    1
    69    75    76    1
    70     2     5    1
    71    71    70    1
    72    71    72    2
    73   104   102    1
    74    70    73    1
    75   103   102    1
    76     9     7   am
    77    76    77    2
    78   102    99    1
    79     5     6    1
    80   101   100    2
    81    99   100    1
    82    99    98    1
    83     6     7    1
    84     7     8    2
    85    98    89   am
    86    90    89    2
    87    89    88    1
    88    85    84    2
    89    86    83    1
    90    91    88    1
    91    91    92    1
    92    84    83    1
    93    83    82    1
    94    88    87    1
    95    94    92   ar
    96    94    96   ar
    97    92    93   ar
    98    96    97   ar
    99    93    95   ar
   100    97    95   ar
