@<TRIPOS>MOLECULE
tmp/1ua1C00.pdb
 102 98 0 0 0
SMALL
GASTEIGER

@<TRIPOS>ATOM
      1  N         30.0690   29.4410   53.3910 N.3   252  LYS252     -0.1245
      2  CA        29.2640   28.7490   52.3890 C.3   252  LYS252      0.1561
      3  C         30.0630   27.6990   51.6220 C.2   252  LYS252      0.2260
      4  O         31.1990   27.9420   51.2050 O.2   252  LYS252     -0.2867
      5  CB        28.6730   29.7550   51.3980 C.3   252  LYS252      0.0271
      6  CG        27.7840   29.1200   50.3380 C.3   252  LYS252      0.0035
      7  CD        27.3160   30.1360   49.3030 C.3   252  LYS252      0.0206
      8  CE        26.4110   31.2000   49.9060 C.3   252  LYS252      0.1093
      9  NZ        25.9230   32.1570   48.8630 N.3   252  LYS252     -0.1314
     10  N         28.4020   37.7280   47.2140 N.3   263  ASP263     -0.1239
     11  CA        27.7200   37.8480   48.4980 C.3   263  ASP263      0.1674
     12  C         28.5380   37.2290   49.6330 C.2   263  ASP263      0.2266
     13  O         28.5120   37.7190   50.7630 O.2   263  ASP263     -0.2867
     14  CB        26.3420   37.1870   48.4240 C.3   263  ASP263      0.1410
     15  CG        26.4260   35.7140   48.1070 C.2   263  ASP263      0.3668
     16  OD1       27.1150   35.3580   47.1250 O.co2 263  ASP263     -0.2456
     17  OD2       25.8030   34.9120   48.8350 O.co2 263  ASP263     -0.2456
     18  N         10.3660   42.8920   45.5170 N.3   414  PHE414     -0.1241
     19  CA        11.2150   42.2780   44.4950 C.3   414  PHE414      0.1605
     20  C         10.9590   40.7710   44.5030 C.2   414  PHE414      0.2264
     21  O         10.9410   40.1230   43.4530 O.2   414  PHE414     -0.2867
     22  CB        12.6920   42.5540   44.8040 C.3   414  PHE414      0.0534
     23  CG        13.6650   41.8230   43.9070 C.ar  414  PHE414     -0.0203
     24  CD1       14.1680   42.4250   42.7550 C.ar  414  PHE414     -0.0042
     25  CD2       14.1010   40.5360   44.2320 C.ar  414  PHE414     -0.0042
     26  CE1       15.0950   41.7580   41.9390 C.ar  414  PHE414     -0.0003
     27  CE2       15.0230   39.8580   43.4240 C.ar  414  PHE414     -0.0003
     28  CZ        15.5220   40.4720   42.2760 C.ar  414  PHE414     -0.0000
     29  N          9.3240   38.6700   41.2860 N.3   418  TYR418     -0.1227
     30  CA        10.0860   37.5750   40.6900 C.3   418  TYR418      0.1736
     31  C          9.7880   36.1670   41.2000 C.2   418  TYR418      0.2596
     32  O         10.2880   35.1840   40.6420 O.2   418  TYR418     -0.2718
     33  CB        11.5760   37.8690   40.8190 C.3   418  TYR418      0.0548
     34  CG        12.0050   39.0120   39.9390 C.ar  418  TYR418     -0.0200
     35  CD1       11.7790   38.9740   38.5640 C.ar  418  TYR418     -0.0009
     36  CD2       12.6080   40.1460   40.4760 C.ar  418  TYR418     -0.0009
     37  CE1       12.1400   40.0370   37.7450 C.ar  418  TYR418      0.0417
     38  CE2       12.9730   41.2210   39.6610 C.ar  418  TYR418      0.0417
     39  CZ        12.7360   41.1560   38.2990 C.ar  418  TYR418      0.1957
     40  OH        13.0970   42.2100   37.4910 O.3   418  TYR418     -0.2866
     41  N          8.9730   36.0660   42.2450 N.am  419  GLY419     -0.1942
     42  CA         8.6300   34.7600   42.7800 C.3   419  GLY419      0.2014
     43  C          9.8350   33.9880   43.2860 C.2   419  GLY419      0.2639
     44  O          9.9920   32.7990   42.9980 O.2   419  GLY419     -0.2714
     45  N         10.6950   34.6650   44.0410 N.am  420  ILE420     -0.1963
     46  CA        11.8830   34.0210   44.5930 C.3   420  ILE420      0.1727
     47  C         11.4580   33.1420   45.7650 C.2   420  ILE420      0.2616
     48  O         10.3920   33.3470   46.3490 O.2   420  ILE420     -0.2715
     49  CB        12.9210   35.0670   45.0930 C.3   420  ILE420      0.0290
     50  CG1       12.4530   35.7030   46.4050 C.3   420  ILE420      0.0022
     51  CG2       13.1100   36.1520   44.0390 C.3   420  ILE420      0.0023
     52  CD1       13.4380   36.7090   46.9760 C.3   420  ILE420      0.0001
     53  N         12.2880   32.1610   46.1010 N.am  421  SER421     -0.1950
     54  CA        11.9870   31.2590   47.2050 C.3   421  SER421      0.1924
     55  C         12.0560   32.0030   48.5350 C.2   421  SER421      0.2314
     56  O         12.5710   33.1220   48.6030 O.2   421  SER421     -0.2863
     57  CB        12.9780   30.0890   47.2170 C.3   421  SER421      0.2116
     58  OG        14.3170   30.5480   47.3190 O.3   421  SER421     -0.2180
     59  N         13.8210   31.1710   50.9130 N.3   423  TYR423     -0.1227
     60  CA        15.2410   31.1550   51.2250 C.3   423  TYR423      0.1736
     61  C         15.9420   32.3320   50.5550 C.2   423  TYR423      0.2596
     62  O         16.7640   33.0100   51.1730 O.2   423  TYR423     -0.2718
     63  CB        15.8580   29.8360   50.7530 C.3   423  TYR423      0.0548
     64  CG        17.3060   29.6620   51.1400 C.ar  423  TYR423     -0.0200
     65  CD1       17.7100   29.7680   52.4730 C.ar  423  TYR423     -0.0009
     66  CD2       18.2760   29.3830   50.1770 C.ar  423  TYR423     -0.0009
     67  CE1       19.0450   29.6010   52.8370 C.ar  423  TYR423      0.0417
     68  CE2       19.6140   29.2130   50.5290 C.ar  423  TYR423      0.0417
     69  CZ        19.9920   29.3240   51.8620 C.ar  423  TYR423      0.1957
     70  OH        21.3140   29.1670   52.2170 O.3   423  TYR423     -0.2866
     71  N         15.6110   32.5710   49.2900 N.am  424  GLY424     -0.1957
     72  CA        16.2140   33.6720   48.5610 C.3   424  GLY424      0.1869
     73  C         15.8940   35.0130   49.1950 C.2   424  GLY424      0.2309
     74  O         16.6830   35.9540   49.1030 O.2   424  GLY424     -0.2863
     75  N         17.8900   35.7590   52.6490 N.3   427  GLN427     -0.1231
     76  CA        19.2490   36.2060   52.3860 C.3   427  GLN427      0.1698
     77  C         19.2830   37.6250   51.8390 C.2   427  GLN427      0.2592
     78  O         20.1500   38.4180   52.2080 O.2   427  GLN427     -0.2718
     79  CB        19.9120   35.2530   51.4060 C.3   427  GLN427      0.0381
     80  CG        19.8860   33.8290   51.8960 C.3   427  GLN427      0.0905
     81  CD        19.7730   32.8460   50.7650 C.2   427  GLN427      0.2608
     82  OE1       18.8460   32.9190   49.9550 O.2   427  GLN427     -0.2717
     83  NE2       20.7120   31.9130   50.6970 N.am  427  GLN427     -0.0878
     84  N         18.3430   37.9400   50.9530 N.am  428  ASN428     -0.1974
     85  CA        18.2690   39.2790   50.3830 C.3   428  ASN428      0.1688
     86  C         18.0670   40.2720   51.5210 C.2   428  ASN428      0.2292
     87  O         18.3890   41.4530   51.3960 O.2   428  ASN428     -0.2864
     88  CB        17.1150   39.3710   49.3850 C.3   428  ASN428      0.1181
     89  CG        17.4230   38.6660   48.0770 C.2   428  ASN428      0.2629
     90  OD1       16.5610   38.5420   47.2050 O.2   428  ASN428     -0.2716
     91  ND2       18.6600   38.2070   47.9310 N.am  428  ASN428     -0.0877
     92  N          5.2950   28.6410   43.3980 N.3   493  ARG493     -0.1245
     93  CA         5.8250   29.9800   43.1690 C.3   493  ARG493      0.1563
     94  C          5.5720   30.4000   41.7230 C.2   493  ARG493      0.2260
     95  O          5.2840   31.5620   41.4530 O.2   493  ARG493     -0.2867
     96  CB         7.3280   30.0320   43.4590 C.3   493  ARG493      0.0307
     97  CG         7.6730   30.2700   44.9230 C.3   493  ARG493      0.0489
     98  CD         9.1580   30.5620   45.0990 C.3   493  ARG493      0.2205
     99  NE         9.9740   29.3560   45.1040 N.pl3 493  ARG493     -0.0865
    100  CZ        11.0650   29.1830   44.3610 C.cat 493  ARG493      0.5346
    101  NH1       11.4820   30.1380   43.5330 N.pl3 493  ARG493      0.1354
    102  NH2       11.7490   28.0530   44.4590 N.pl3 493  ARG493      0.1354
@<TRIPOS>BOND
     1    40    39    1
     2    37    39   ar
     3    37    35   ar
     4    39    38   ar
     5    35    34   ar
     6    38    36   ar
     7    34    36   ar
     8    34    33    1
     9    32    31    2
    10    30    33    1
    11    30    31    1
    12    30    29    1
    13    31    41   am
    14    95    94    2
    15    94    93    1
    16    26    28   ar
    17    26    24   ar
    18    41    42    1
    19    28    27   ar
    20    24    23   ar
    21    42    43    1
    22    44    43    2
    23    93    92    1
    24    93    96    1
    25    43    45   am
    26    27    25   ar
    27    21    20    2
    28    96    97    1
    29   101   100    1
    30    23    25   ar
    31    23    22    1
    32    51    49    1
    33    45    46    1
    34   100   102    1
    35   100    99    2
    36    19    20    1
    37    19    22    1
    38    19    18    1
    39    46    49    1
    40    46    47    1
    41    97    98    1
    42    49    50    1
    43    98    99    1
    44    47    53   am
    45    47    48    2
    46    53    54    1
    47    50    52    1
    48    16    15   ar
    49    54    57    1
    50    54    55    1
    51    90    89    2
    52    10    11    1
    53    57    58    1
    54    91    89   am
    55    89    88    1
    56    15    14    1
    57    15    17   ar
    58    14    11    1
    59    11    12    1
    60    55    56    2
    61    72    73    1
    62    72    71    1
    63     9     8    1
    64    74    73    2
    65    71    61   am
    66     7     8    1
    67     7     6    1
    68    88    85    1
    69    12    13    2
    70    82    81    2
    71    66    68   ar
    72    66    64   ar
    73     6     5    1
    74    85    84    1
    75    85    86    1
    76    68    69   ar
    77    61    62    2
    78    61    60    1
    79    83    81   am
    80    63    64    1
    81    63    60    1
    82    81    80    1
    83    59    60    1
    84    84    77   am
    85    64    65   ar
    86     4     3    2
    87    87    86    2
    88     5     2    1
    89    79    80    1
    90    79    76    1
    91     3     2    1
    92    77    78    2
    93    77    76    1
    94    69    70    1
    95    69    67   ar
    96    76    75    1
    97     2     1    1
    98    65    67   ar
