@<TRIPOS>MOLECULE
tmp/1ua2D00.pdb
 205 196 0 0 0
SMALL
GASTEIGER

@<TRIPOS>ATOM
      1  N         23.6530   53.7700   22.2610 N.3     6  LEU6       -0.1231
      2  CA        22.2960   53.6390   22.7930 C.3     6  LEU6        0.1693
      3  C         22.0820   54.3700   24.1240 C.2     6  LEU6        0.2593
      4  O         20.9640   54.4630   24.6110 O.2     6  LEU6       -0.2718
      5  CB        21.8950   52.1610   22.9040 C.3     6  LEU6        0.0284
      6  CG        21.6260   51.3210   21.6450 C.3     6  LEU6        0.0019
      7  CD1       21.4520   49.8570   22.0380 C.3     6  LEU6        0.0001
      8  CD2       20.4190   51.8030   20.8330 C.3     6  LEU6        0.0001
      9  N         23.1460   54.9000   24.7080 N.am    7  GLY7       -0.1942
     10  CA        23.0020   55.7170   25.9060 C.3     7  GLY7        0.2014
     11  C         23.8460   55.1480   27.0130 C.2     7  GLY7        0.2639
     12  O         24.3180   54.0150   26.9150 O.2     7  GLY7       -0.2714
     13  N         24.0700   55.9330   28.0580 N.am    8  GLU8       -0.1963
     14  CA        24.6860   55.3700   29.2510 C.3     8  GLU8        0.1733
     15  C         23.6600   55.1230   30.3400 C.2     8  GLU8        0.2617
     16  O         22.5190   55.5830   30.2690 O.2     8  GLU8       -0.2715
     17  CB        25.8750   56.1910   29.7810 C.3     8  GLU8        0.0429
     18  CG        25.7340   57.7010   29.6580 C.3     8  GLU8        0.1163
     19  CD        26.4180   58.2390   28.4110 C.2     8  GLU8        0.3649
     20  OE1       27.4040   57.5990   27.9450 O.co2   8  GLU8       -0.2457
     21  OE2       25.9790   59.3000   27.9040 O.co2   8  GLU8       -0.2457
     22  N         24.0840   54.3520   31.3250 N.am    9  GLY9       -0.1940
     23  CA        23.2700   54.0390   32.4680 C.3     9  GLY9        0.2014
     24  C         24.1790   54.1270   33.6670 C.2     9  GLY9        0.2639
     25  O         25.4120   54.0610   33.5320 O.2     9  GLY9       -0.2714
     26  N         23.5670   54.2930   34.8380 N.am   10  GLN10      -0.1963
     27  CA        24.3000   54.3900   36.1040 C.3    10  GLN10       0.1733
     28  C         25.7410   53.8490   36.0740 C.2    10  GLN10       0.2616
     29  O         26.6910   54.5920   36.3500 O.2    10  GLN10      -0.2715
     30  CB        23.4940   53.7250   37.2290 C.3    10  GLN10       0.0408
     31  CG        22.3980   54.5920   37.8360 C.3    10  GLN10       0.0908
     32  CD        21.0340   53.9000   37.8250 C.2    10  GLN10       0.2608
     33  OE1       20.9430   52.6590   37.8800 O.2    10  GLN10      -0.2717
     34  NE2       19.9690   54.7020   37.7360 N.am   10  GLN10      -0.0878
     35  N         25.9010   52.5700   35.7290 N.am   11  PHE11      -0.1960
     36  CA        27.1930   51.9000   35.9030 C.3    11  PHE11       0.1771
     37  C         27.6750   51.1370   34.6570 C.2    11  PHE11       0.2619
     38  O         28.3790   50.1240   34.7560 O.2    11  PHE11      -0.2715
     39  CB        27.1740   51.0160   37.1690 C.3    11  PHE11       0.0574
     40  CG        26.6380   51.7270   38.4010 C.ar   11  PHE11      -0.0200
     41  CD1       25.3010   51.5860   38.7790 C.ar   11  PHE11      -0.0042
     42  CD2       27.4600   52.5600   39.1610 C.ar   11  PHE11      -0.0042
     43  CE1       24.7900   52.2570   39.8990 C.ar   11  PHE11      -0.0003
     44  CE2       26.9640   53.2340   40.2810 C.ar   11  PHE11      -0.0003
     45  CZ        25.6240   53.0830   40.6470 C.ar   11  PHE11      -0.0000
     46  N         27.3030   51.6560   33.4870 N.am   12  ALA12      -0.1977
     47  CA        27.7280   51.1120   32.1910 C.3    12  ALA12       0.1597
     48  C         27.2980   51.9880   31.0040 C.2    12  ALA12       0.2287
     49  O         26.2970   52.7090   31.0620 O.2    12  ALA12      -0.2864
     50  CB        27.2190   49.7030   32.0060 C.3    12  ALA12       0.0319
     51  N         26.1400   51.7890   27.0700 N.3    14  VAL14      -0.1245
     52  CA        25.4740   50.7910   26.2140 C.3    14  VAL14       0.1561
     53  C         25.6450   51.0880   24.7090 C.2    14  VAL14       0.2260
     54  O         25.4070   52.2110   24.2490 O.2    14  VAL14      -0.2867
     55  CB        23.9620   50.6080   26.6100 C.3    14  VAL14       0.0252
     56  CG1       23.2670   49.5500   25.7520 C.3    14  VAL14       0.0019
     57  CG2       23.8180   50.2510   28.0880 C.3    14  VAL14       0.0019
     58  N         22.4460   44.2210   22.0870 N.3    27  ALA27      -0.1245
     59  CA        22.9670   45.3260   22.8870 C.3    27  ALA27       0.1562
     60  C         24.0490   44.8770   23.8900 C.2    27  ALA27       0.2260
     61  O         23.9300   43.8310   24.5450 O.2    27  ALA27      -0.2867
     62  CB        21.8290   46.0670   23.5850 C.3    27  ALA27       0.0290
     63  N         26.8120   46.2880   27.0600 N.3    29  LYS29      -0.1245
     64  CA        27.0560   47.3410   28.0470 C.3    29  LYS29       0.1561
     65  C         28.5090   47.2680   28.4580 C.2    29  LYS29       0.2260
     66  O         29.0260   46.1740   28.6860 O.2    29  LYS29      -0.2867
     67  CB        26.1730   47.1870   29.2960 C.3    29  LYS29       0.0271
     68  CG        24.7370   46.7430   29.0800 C.3    29  LYS29       0.0035
     69  CD        23.9930   46.6870   30.4160 C.3    29  LYS29       0.0206
     70  CE        22.4730   46.5810   30.2220 C.3    29  LYS29       0.1093
     71  NZ        21.7430   47.1110   31.4060 N.3    29  LYS29      -0.1314
     72  N         15.3830   39.3310   30.1240 N.3    51  ILE51      -0.1245
     73  CA        16.4770   39.5480   29.1960 C.3    51  ILE51       0.1561
     74  C         17.4990   38.4170   29.3100 C.2    51  ILE51       0.2260
     75  O         17.9180   38.0210   30.4170 O.2    51  ILE51      -0.2867
     76  CB        17.1030   40.9680   29.3130 C.3    51  ILE51       0.0252
     77  CG1       17.8100   41.3080   28.0140 C.3    51  ILE51       0.0019
     78  CG2       18.0510   41.0940   30.5090 C.3    51  ILE51       0.0019
     79  CD1       17.5590   42.6750   27.5700 C.3    51  ILE51       0.0001
     80  N         23.3570   41.5640   25.8100 N.3    67  PHE67      -0.1227
     81  CA        21.9830   41.1280   25.9600 C.3    67  PHE67       0.1736
     82  C         21.3930   41.1240   24.5980 C.2    67  PHE67       0.2595
     83  O         21.9600   41.7320   23.7180 O.2    67  PHE67      -0.2718
     84  CB        21.2300   42.1080   26.8490 C.3    67  PHE67       0.0547
     85  CG        21.8090   42.2190   28.2120 C.ar   67  PHE67      -0.0202
     86  CD1       22.8960   43.0580   28.4540 C.ar   67  PHE67      -0.0042
     87  CD2       21.3080   41.4520   29.2460 C.ar   67  PHE67      -0.0042
     88  CE1       23.4650   43.1350   29.7210 C.ar   67  PHE67      -0.0003
     89  CE2       21.8580   41.5300   30.5090 C.ar   67  PHE67      -0.0003
     90  CZ        22.9420   42.3720   30.7540 C.ar   67  PHE67      -0.0000
     91  N         20.2640   40.4580   24.3990 N.am   68  ASP68      -0.1960
     92  CA        19.5930   40.6160   23.1250 C.3    68  ASP68       0.1840
     93  C         18.9430   41.9920   23.0760 C.2    68  ASP68       0.2622
     94  O         18.5480   42.5340   24.0960 O.2    68  ASP68      -0.2715
     95  CB        18.6140   39.4910   22.8530 C.3    68  ASP68       0.1450
     96  CG        17.7700   39.1780   24.0350 C.2    68  ASP68       0.3671
     97  OD1       16.8480   39.9670   24.2940 O.co2  68  ASP68      -0.2456
     98  OD2       17.9350   38.1720   24.7580 O.co2  68  ASP68      -0.2456
     99  N         18.8810   42.5690   21.8840 N.am   69  PHE69      -0.1960
    100  CA        18.4830   43.9610   21.7230 C.3    69  PHE69       0.1771
    101  C         16.9650   44.1140   21.6570 C.2    69  PHE69       0.2619
    102  O         16.2550   43.1680   21.3040 O.2    69  PHE69      -0.2715
    103  CB        19.1520   44.5160   20.4740 C.3    69  PHE69       0.0574
    104  CG        18.6610   45.8630   20.0580 C.ar   69  PHE69      -0.0200
    105  CD1       19.3270   47.0120   20.4810 C.ar   69  PHE69      -0.0042
    106  CD2       17.5640   45.9780   19.2050 C.ar   69  PHE69      -0.0042
    107  CE1       18.8960   48.2630   20.0910 C.ar   69  PHE69      -0.0003
    108  CE2       17.1220   47.2130   18.8020 C.ar   69  PHE69      -0.0003
    109  CZ        17.7850   48.3710   19.2530 C.ar   69  PHE69      -0.0000
    110  N         16.4770   45.3080   22.0080 N.am   70  MET70      -0.1963
    111  CA        15.0380   45.5740   22.1650 C.3    70  MET70       0.1736
    112  C         14.7490   47.0570   21.9510 C.2    70  MET70       0.2616
    113  O         15.2580   47.9150   22.6960 O.2    70  MET70      -0.2715
    114  CB        14.5660   45.1380   23.5570 C.3    70  MET70       0.0427
    115  CG        15.4650   44.1130   24.2120 C.3    70  MET70       0.0599
    116  SD        14.6040   42.8070   25.0660 S.3    70  MET70      -0.1393
    117  CE        13.1830   42.4520   24.0450 C.3    70  MET70       0.0692
    118  N         13.9150   47.3350   20.9430 N.am   71  GLU71      -0.1963
    119  CA        13.7380   48.6920   20.3940 C.3    71  GLU71       0.1733
    120  C         13.7870   49.7320   21.5040 C.2    71  GLU71       0.2617
    121  O         14.7300   50.5250   21.5930 O.2    71  GLU71      -0.2715
    122  CB        12.4430   48.8020   19.5600 C.3    71  GLU71       0.0429
    123  CG        12.2790   47.6890   18.5150 C.3    71  GLU71       0.1163
    124  CD        13.2670   47.7650   17.3200 C.2    71  GLU71       0.3649
    125  OE1       13.2770   48.8040   16.6010 O.co2  71  GLU71      -0.2457
    126  OE2       14.0200   46.7760   17.0650 O.co2  71  GLU71      -0.2457
    127  N         12.7780   49.6920   22.3690 N.am   72  THR72      -0.1937
    128  CA        12.7420   50.5230   23.5580 C.3    72  THR72       0.2028
    129  C         12.2450   49.7210   24.7390 C.2    72  THR72       0.2642
    130  O         12.3960   48.4850   24.8100 O.2    72  THR72      -0.2714
    131  CB        11.7660   51.6770   23.3870 C.3    72  THR72       0.1808
    132  OG1       10.4830   51.1370   23.0490 O.3    72  THR72      -0.2208
    133  CG2       12.1550   52.5820   22.2140 C.3    72  THR72       0.0379
    134  N         11.6010   50.4670   25.6360 N.am   73  ASP73      -0.1971
    135  CA        11.2200   49.9960   26.9390 C.3    73  ASP73       0.1709
    136  C          9.9630   50.7040   27.3830 C.2    73  ASP73       0.2293
    137  O          9.4170   51.5460   26.6790 O.2    73  ASP73      -0.2864
    138  CB        12.3390   50.2890   27.9330 C.3    73  ASP73       0.1436
    139  CG        12.5990   51.7620   28.0840 C.2    73  ASP73       0.3671
    140  OD1       11.6470   52.5280   28.3490 O.co2  73  ASP73      -0.2456
    141  OD2       13.7340   52.2470   27.9520 O.co2  73  ASP73      -0.2456
    142  N         15.7870   46.0600   41.0700 N.3   113  ASP113     -0.1239
    143  CA        15.4410   47.4040   40.5830 C.3   113  ASP113      0.1674
    144  C         14.5530   47.4710   39.3420 C.2   113  ASP113      0.2266
    145  O         14.9120   47.9840   38.2760 O.2   113  ASP113     -0.2867
    146  CB        16.6370   48.4060   40.5870 C.3   113  ASP113      0.1410
    147  CG        17.5130   48.3290   39.3270 C.2   113  ASP113      0.3668
    148  OD1       17.9580   47.2130   38.9480 O.co2 113  ASP113     -0.2456
    149  OD2       17.8310   49.3490   38.6610 O.co2 113  ASP113     -0.2456
    150  N         11.9430   49.2660   37.4850 N.3   115  LYS115     -0.1245
    151  CA        11.3170   50.5420   37.1920 C.3   115  LYS115      0.1561
    152  C         10.8420   50.4280   35.7530 C.2   115  LYS115      0.2260
    153  O         10.9800   49.3710   35.1500 O.2   115  LYS115     -0.2867
    154  CB        12.2790   51.7080   37.4130 C.3   115  LYS115      0.0271
    155  CG        13.6620   51.4520   36.9980 C.3   115  LYS115      0.0035
    156  CD        14.5740   52.3180   37.8410 C.3   115  LYS115      0.0206
    157  CE        15.9960   51.7680   37.8270 C.3   115  LYS115      0.1093
    158  NZ        17.0290   52.8320   37.8410 N.3   115  LYS115     -0.1314
    159  N         11.9270   52.0710   33.0180 N.3   117  ASN117     -0.1225
    160  CA        13.2460   51.9560   32.3710 C.3   117  ASN117      0.1785
    161  C         13.7550   50.5050   32.1890 C.2   117  ASN117      0.2597
    162  O         14.1400   50.1540   31.0920 O.2   117  ASN117     -0.2718
    163  CB        14.2580   52.9140   33.0520 C.3   117  ASN117      0.1169
    164  CG        15.6260   52.2680   33.3440 C.2   117  ASN117      0.2627
    165  OD1       16.2650   51.6420   32.4780 O.2   117  ASN117     -0.2716
    166  ND2       16.0900   52.4440   34.5770 N.am  117  ASN117     -0.0877
    167  N         13.7230   49.6620   33.2240 N.am  118  ASN118     -0.1974
    168  CA        14.1900   48.2660   33.1030 C.3   118  ASN118      0.1688
    169  C         13.1370   47.2770   32.6130 C.2   118  ASN118      0.2292
    170  O         13.3500   46.0620   32.6470 O.2   118  ASN118     -0.2864
    171  CB        14.7730   47.7430   34.4140 C.3   118  ASN118      0.1181
    172  CG        16.0610   48.3930   34.7660 C.2   118  ASN118      0.2629
    173  OD1       16.9110   48.6480   33.8990 O.2   118  ASN118     -0.2716
    174  ND2       16.2280   48.6930   36.0480 N.am  118  ASN118     -0.0877
    175  N         11.9590   46.2100   29.4290 N.3   120  LEU120     -0.1245
    176  CA        12.3820   46.2290   28.0160 C.3   120  LEU120      0.1561
    177  C         11.3660   45.6140   27.0430 C.2   120  LEU120      0.2260
    178  O         10.5540   44.7530   27.4180 O.2   120  LEU120     -0.2867
    179  CB        13.7780   45.5850   27.8730 C.3   120  LEU120      0.0270
    180  CG        14.9630   46.5170   28.1770 C.3   120  LEU120      0.0019
    181  CD1       14.5730   47.7020   29.0180 C.3   120  LEU120      0.0001
    182  CD2       16.1020   45.8240   28.8570 C.3   120  LEU120      0.0001
    183  N         18.5370   43.2820   33.4040 N.3   131  ASP131     -0.1239
    184  CA        19.4160   42.5880   34.3420 C.3   131  ASP131      0.1674
    185  C         19.2150   43.1030   35.7450 C.2   131  ASP131      0.2266
    186  O         19.2660   44.3190   35.9870 O.2   131  ASP131     -0.2867
    187  CB        20.8950   42.7280   33.9580 C.3   131  ASP131      0.1410
    188  CG        21.3290   44.1860   33.7470 C.2   131  ASP131      0.3668
    189  OD1       20.9670   44.7910   32.7080 O.co2 131  ASP131     -0.2456
    190  OD2       22.0570   44.8010   34.5570 O.co2 131  ASP131     -0.2456
    191  N         24.8630   43.5540   36.5930 N.3   136  LYS136     -0.1231
    192  CA        25.7430   44.6020   36.0270 C.3   136  LYS136      0.1693
    193  C         26.1540   45.6640   37.0530 C.2   136  LYS136      0.2592
    194  O         27.0080   45.4300   37.9110 O.2   136  LYS136     -0.2718
    195  CB        25.0650   45.3050   34.8440 C.3   136  LYS136      0.0285
    196  CG        25.7250   45.0490   33.4840 C.3   136  LYS136      0.0035
    197  CD        26.8650   46.1000   33.2030 C.3   136  LYS136      0.0206
    198  CE        27.5630   45.7460   31.8730 C.3   136  LYS136      0.1093
    199  NZ        28.6230   46.7300   31.4560 N.3   136  LYS136     -0.1314
    200  N         25.5270   46.8320   36.9240 N.am  137  SER137     -0.1952
    201  CA        25.7050   47.9960   37.8050 C.3   137  SER137      0.1924
    202  C         26.4570   47.8040   39.1450 C.2   137  SER137      0.2314
    203  O         27.6720   48.0560   39.2020 O.2   137  SER137     -0.2863
    204  CB        24.3680   48.7520   38.0010 C.3   137  SER137      0.2116
    205  OG        23.2290   47.9350   37.7740 O.3   137  SER137     -0.2180
@<TRIPOS>BOND
     1   125   124   ar
     2   126   124   ar
     3   124   123    1
     4   123   122    1
     5   108   106   ar
     6   108   109   ar
     7   106   104   ar
     8   109   107   ar
     9   122   119    1
    10   104   103    1
    11   104   105   ar
    12   107   105   ar
    13   119   118    1
    14   119   120    1
    15   103   100    1
    16     8     6    1
    17   118   112   am
    18   102   101    2
    19   120   121    2
    20   120   127   am
    21     6     7    1
    22     6     5    1
    23   101   100    1
    24   101   110   am
    25   100    99    1
    26    99    93   am
    27   112   111    1
    28   112   113    2
    29   110   111    1
    30    58    59    1
    31   111   114    1
    32   133   131    1
    33     1     2    1
    34   127   128    1
    35     2     5    1
    36     2     3    1
    37    95    92    1
    38    95    96    1
    39    59    62    1
    40    59    60    1
    41   132   131    1
    42    93    92    1
    43    93    94    2
    44    92    91    1
    45   131   128    1
    46   114   115    1
    47   128   129    1
    48    83    82    2
    49    60    61    2
    50    96    97   ar
    51    96    98   ar
    52   117   116    1
    53     3     4    2
    54     3     9   am
    55   115   116    1
    56    54    53    2
    57    91    82   am
    58    82    81    1
    59     9    10    1
    60    53    52    1
    61   129   130    2
    62   129   134   am
    63   134   135    1
    64    56    55    1
    65    80    81    1
    66    10    11    1
    67    81    84    1
    68    52    55    1
    69    52    51    1
    70    55    57    1
    71   137   136    2
    72    84    85    1
    73    12    11    2
    74   135   136    1
    75   135   138    1
    76    11    13   am
    77   177   178    2
    78   177   176    1
    79    63    64    1
    80    79    77    1
    81   179   176    1
    82   179   180    1
    83    21    19   ar
    84   138   139    1
    85    20    19   ar
    86   141   139   ar
    87    77    76    1
    88   176   175    1
    89    64    65    1
    90    64    67    1
    91    13    14    1
    92   139   140   ar
    93   180   182    1
    94   180   181    1
    95    85    86   ar
    96    85    87   ar
    97    19    18    1
    98    86    88   ar
    99    65    66    2
   100    68    67    1
   101    68    69    1
   102    73    74    1
   103    73    76    1
   104    73    72    1
   105    87    89   ar
   106    14    17    1
   107    14    15    1
   108    74    75    2
   109    76    78    1
   110    18    17    1
   111    88    90   ar
   112    70    69    1
   113    70    71    1
   114    16    15    2
   115    15    22   am
   116    89    90   ar
   117    48    49    2
   118    48    47    1
   119   162   161    2
   120    22    23    1
   121   199   198    1
   122   198   197    1
   123    50    47    1
   124   161   160    1
   125   161   167   am
   126    47    46    1
   127   160   159    1
   128   160   163    1
   129    23    24    1
   130   165   164    2
   131   169   170    2
   132   169   168    1
   133   189   188   ar
   134   163   164    1
   135   168   167    1
   136   168   171    1
   137   197   196    1
   138   164   166   am
   139   183   184    1
   140   196   195    1
   141    46    37   am
   142    25    24    2
   143    24    26   am
   144   188   187    1
   145   188   190   ar
   146   173   172    2
   147   187   184    1
   148   184   185    1
   149   171   172    1
   150    37    38    2
   151    37    36    1
   152   172   174   am
   153    26    27    1
   154   195   192    1
   155   153   152    2
   156    35    36    1
   157    35    28   am
   158   185   186    2
   159   152   151    1
   160    36    39    1
   161   192   191    1
   162   192   193    1
   163    28    27    1
   164    28    29    2
   165    27    30    1
   166   200   193   am
   167   200   201    1
   168   155   154    1
   169   155   156    1
   170   193   194    2
   171    39    40    1
   172   151   154    1
   173   151   150    1
   174    30    31    1
   175    34    32   am
   176   205   204    1
   177   201   204    1
   178   201   202    1
   179    32    31    1
   180    32    33    2
   181   157   158    1
   182   157   156    1
   183   145   144    2
   184    40    41   ar
   185    40    42   ar
   186   149   147   ar
   187    41    43   ar
   188   148   147   ar
   189   202   203    2
   190    42    44   ar
   191   147   146    1
   192   144   143    1
   193    43    45   ar
   194    44    45   ar
   195   143   146    1
   196   143   142    1
