@<TRIPOS>MOLECULE
tmp/1ua4A02.pdb
 199 190 0 0 0
SMALL
GASTEIGER

@<TRIPOS>ATOM
      1  N         23.6880   20.6330    3.4130 N.3    85  ALA85      -0.1245
      2  CA        22.7710   21.7370    3.6700 C.3    85  ALA85       0.1562
      3  C         23.4720   23.0220    4.1050 C.2    85  ALA85       0.2260
      4  O         24.4590   22.9890    4.8350 O.2    85  ALA85      -0.2867
      5  CB        21.7550   21.3230    4.7310 C.3    85  ALA85       0.0290
      6  N         24.1410   13.6960   -2.6320 N.3   193  ARG193     -0.1231
      7  CA        23.0330   13.3890   -1.7290 C.3   193  ARG193      0.1694
      8  C         21.9310   14.4240   -1.8920 C.2   193  ARG193      0.2592
      9  O         22.2110   15.5980   -2.1460 O.2   193  ARG193     -0.2718
     10  CB        23.4930   13.3990   -0.2660 C.3   193  ARG193      0.0321
     11  CG        22.4180   12.9220    0.7120 C.3   193  ARG193      0.0489
     12  CD        22.2530   13.8450    1.9280 C.3   193  ARG193      0.2205
     13  NE        23.4000   13.8280    2.8340 N.pl3 193  ARG193     -0.0865
     14  CZ        23.4470   14.4780    3.9940 C.cat 193  ARG193      0.5346
     15  NH1       24.5320   14.4060    4.7580 N.pl3 193  ARG193      0.1354
     16  NH2       22.4090   15.1990    4.3950 N.pl3 193  ARG193      0.1354
     17  N         20.6820   13.9880   -1.7490 N.am  194  GLU194     -0.1966
     18  CA        19.5520   14.9010   -1.8440 C.3   194  GLU194      0.1733
     19  C         19.7190   15.9170   -0.7220 C.2   194  GLU194      0.2616
     20  O         20.0860   15.5570    0.3950 O.2   194  GLU194     -0.2715
     21  CB        18.2270   14.1460   -1.6680 C.3   194  GLU194      0.0429
     22  CG        18.1220   13.3310   -0.3810 C.3   194  GLU194      0.1163
     23  CD        18.5960   11.8930   -0.5450 C.2   194  GLU194      0.3649
     24  OE1       19.6580   11.6760   -1.1620 O.co2 194  GLU194     -0.2457
     25  OE2       17.9070   10.9790   -0.0480 O.co2 194  GLU194     -0.2457
     26  N         19.4640   17.1870   -1.0140 N.am  195  ASN195     -0.1958
     27  CA        19.6020   18.2150    0.0040 C.3   195  ASN195      0.1819
     28  C         18.9850   19.5260   -0.4670 C.2   195  ASN195      0.2621
     29  O         18.2220   19.5430   -1.4340 O.2   195  ASN195     -0.2715
     30  CB        21.0790   18.4230    0.3490 C.3   195  ASN195      0.1195
     31  CG        21.3000   18.6230    1.8350 C.2   195  ASN195      0.2630
     32  OD1       20.6480   19.4580    2.4610 O.2   195  ASN195     -0.2716
     33  ND2       22.2220   17.8530    2.4090 N.am  195  ASN195     -0.0877
     34  N         19.3080   20.6220    0.2120 N.am  196  ARG196     -0.1977
     35  CA        18.7450   21.9120   -0.1730 C.3   196  ARG196      0.1597
     36  C         19.5680   23.0900    0.3250 C.2   196  ARG196      0.2287
     37  O         20.3590   22.9610    1.2600 O.2   196  ARG196     -0.2864
     38  CB        17.3160   22.0470    0.3820 C.3   196  ARG196      0.0334
     39  CG        17.2360   22.5230    1.8410 C.3   196  ARG196      0.0492
     40  CD        17.9190   21.5590    2.8040 C.3   196  ARG196      0.2205
     41  NE        17.8100   21.9750    4.2060 N.pl3 196  ARG196     -0.0865
     42  CZ        18.5090   22.9620    4.7630 C.cat 196  ARG196      0.5346
     43  NH1       19.3820   23.6600    4.0460 N.pl3 196  ARG196      0.1354
     44  NH2       18.3430   23.2440    6.0490 N.pl3 196  ARG196      0.1354
     45  N         23.5800   18.7870   12.8140 N.3   291  ASN291     -0.1225
     46  CA        23.9810   17.8570   11.7590 C.3   291  ASN291      0.1785
     47  C         25.4920   17.9130   11.5630 C.2   291  ASN291      0.2597
     48  O         26.1990   18.5740   12.3300 O.2   291  ASN291     -0.2718
     49  CB        23.2770   18.1860   10.4360 C.3   291  ASN291      0.1169
     50  CG        23.6380   19.5650    9.8940 C.2   291  ASN291      0.2627
     51  OD1       24.6660   20.1380   10.2420 O.2   291  ASN291     -0.2716
     52  ND2       22.7920   20.0900    9.0140 N.am  291  ASN291     -0.0877
     53  N         25.9880   17.2360   10.5290 N.am  292  GLU292     -0.1979
     54  CA        27.4210   17.2060   10.2780 C.3   292  GLU292      0.1602
     55  C         28.0090   18.5570    9.8690 C.2   292  GLU292      0.2287
     56  O         29.1150   18.8970   10.2790 O.2   292  GLU292     -0.2864
     57  CB        27.7680   16.1250    9.2370 C.3   292  GLU292      0.0415
     58  CG        27.3820   16.4120    7.7900 C.3   292  GLU292      0.1163
     59  CD        25.8830   16.4900    7.5620 C.2   292  GLU292      0.3649
     60  OE1       25.1400   15.6440    8.1010 O.co2 292  GLU292     -0.2457
     61  OE2       25.4460   17.3970    6.8280 O.co2 292  GLU292     -0.2457
     62  N         26.8790   21.5340   10.7170 N.3   294  GLU294     -0.1245
     63  CA        26.8700   22.3720   11.9020 C.3   294  GLU294      0.1567
     64  C         27.9460   21.9710   12.9110 C.2   294  GLU294      0.2260
     65  O         28.6250   22.8320   13.4730 O.2   294  GLU294     -0.2867
     66  CB        25.4740   22.3300   12.5270 C.3   294  GLU294      0.0388
     67  CG        24.4270   22.9450   11.6050 C.3   294  GLU294      0.1160
     68  CD        23.0310   22.3940   11.8150 C.2   294  GLU294      0.3649
     69  OE1       22.8400   21.5270   12.6940 O.co2 294  GLU294     -0.2457
     70  OE2       22.1180   22.8340   11.0890 O.co2 294  GLU294     -0.2457
     71  N         22.6320   14.2210   13.9790 N.3   341  HIS341     -0.1226
     72  CA        21.9430   13.4930   12.9260 C.3   341  HIS341      0.1752
     73  C         22.6380   13.7330   11.5970 C.2   341  HIS341      0.2597
     74  O         23.1330   14.8290   11.3280 O.2   341  HIS341     -0.2718
     75  CB        20.4510   13.8810   12.8210 C.3   341  HIS341      0.0759
     76  CG        20.1990   15.3210   12.4850 C.ar  341  HIS341      0.0818
     77  ND1       19.9670   16.2820   13.4460 N.ar  341  HIS341     -0.2268
     78  CD2       20.0990   15.9540   11.2910 C.ar  341  HIS341      0.1154
     79  CE1       19.7310   17.4430   12.8600 C.ar  341  HIS341      0.1986
     80  NE2       19.8050   17.2710   11.5520 N.ar  341  HIS341     -0.2212
     81  N         22.7180   12.6840   10.7890 N.am  342  THR342     -0.1939
     82  CA        23.3150   12.7990    9.4710 C.3   342  THR342      0.2028
     83  C         22.6480   11.7700    8.5630 C.2   342  THR342      0.2642
     84  O         21.6980   11.0950    8.9690 O.2   342  THR342     -0.2714
     85  CB        24.8520   12.5960    9.5050 C.3   342  THR342      0.1808
     86  OG1       25.4160   13.0530    8.2660 O.3   342  THR342     -0.2208
     87  CG2       25.2040   11.1260    9.7030 C.3   342  THR342      0.0379
     88  N         23.1310   11.6610    7.3320 N.am  343  TYR343     -0.1959
     89  CA        22.5540   10.7320    6.3680 C.3   343  TYR343      0.1771
     90  C         23.0370    9.2970    6.5840 C.2   343  TYR343      0.2620
     91  O         24.1330    8.9320    6.1490 O.2   343  TYR343     -0.2715
     92  CB        22.9190   11.1820    4.9530 C.3   343  TYR343      0.0574
     93  CG        22.0440   10.6130    3.8620 C.ar  343  TYR343     -0.0198
     94  CD1       20.7930   11.1640    3.5880 C.ar  343  TYR343     -0.0009
     95  CD2       22.4750    9.5390    3.0820 C.ar  343  TYR343     -0.0009
     96  CE1       19.9970   10.6660    2.5610 C.ar  343  TYR343      0.0417
     97  CE2       21.6810    9.0320    2.0520 C.ar  343  TYR343      0.0417
     98  CZ        20.4470    9.6040    1.7970 C.ar  343  TYR343      0.1957
     99  OH        19.6700    9.1320    0.7630 O.3   343  TYR343     -0.2866
    100  N         22.2210    8.4840    7.2510 N.am  344  GLY344     -0.1954
    101  CA        22.5990    7.0990    7.4860 C.3   344  GLY344      0.1869
    102  C         22.5780    6.6450    8.9370 C.2   344  GLY344      0.2309
    103  O         22.4380    5.4510    9.2150 O.2   344  GLY344     -0.2863
    104  N         22.2200    8.2670   13.4280 N.3   346  TYR346     -0.1241
    105  CA        22.1730    9.3570   14.3990 C.3   346  TYR346      0.1605
    106  C         23.0460    8.8910   15.5520 C.2   346  TYR346      0.2264
    107  O         23.2710    7.6880   15.7200 O.2   346  TYR346     -0.2867
    108  CB        20.7710    9.6100   14.9860 C.3   346  TYR346      0.0534
    109  CG        19.6390    9.8590   14.0150 C.ar  346  TYR346     -0.0201
    110  CD1       19.8710   10.3680   12.7360 C.ar  346  TYR346     -0.0009
    111  CD2       18.3250    9.5720   14.3850 C.ar  346  TYR346     -0.0009
    112  CE1       18.8120   10.5710   11.8440 C.ar  346  TYR346      0.0417
    113  CE2       17.2650    9.7750   13.5080 C.ar  346  TYR346      0.0417
    114  CZ        17.5130   10.2640   12.2390 C.ar  346  TYR346      0.1957
    115  OH        16.4610   10.3750   11.3540 O.3   346  TYR346     -0.2866
    116  N         11.3650   10.7680   10.6830 N.3   368  ALA368     -0.1231
    117  CA        12.1510   11.3100    9.5800 C.3   368  ALA368      0.1694
    118  C         11.7860   10.6090    8.2740 C.2   368  ALA368      0.2591
    119  O         11.6130   11.2580    7.2420 O.2   368  ALA368     -0.2718
    120  CB        13.6370   11.1460    9.8610 C.3   368  ALA368      0.0304
    121  N         11.6690    9.2850    8.3200 N.am  369  ALA369     -0.1980
    122  CA        11.3220    8.5150    7.1280 C.3   369  ALA369      0.1597
    123  C          9.9520    8.9360    6.5980 C.2   369  ALA369      0.2287
    124  O          9.7880    9.1790    5.4020 O.2   369  ALA369     -0.2864
    125  CB        11.3290    7.0180    7.4440 C.3   369  ALA369      0.0319
    126  N         10.1560   12.2990    4.9910 N.3   372  ALA372     -0.1245
    127  CA        10.8890   12.2370    3.7310 C.3   372  ALA372      0.1562
    128  C          9.9920   11.7540    2.5970 C.2   372  ALA372      0.2260
    129  O         10.1430   12.1760    1.4470 O.2   372  ALA372     -0.2867
    130  CB        12.0940   11.3080    3.8730 C.3   372  ALA372      0.0290
    131  N         19.7670    4.3970   10.5030 N.3   425  THR425     -0.1203
    132  CA        18.4930    4.9690   10.0860 C.3   425  THR425      0.1994
    133  C         17.8220    4.3440    8.8680 C.2   425  THR425      0.2618
    134  O         18.4400    3.6110    8.0980 O.2   425  THR425     -0.2717
    135  CB        18.6400    6.4780    9.8360 C.3   425  THR425      0.1784
    136  OG1       19.6190    6.7020    8.8140 O.3   425  THR425     -0.2211
    137  CG2       19.0760    7.1800   11.1140 C.3   425  THR425      0.0376
    138  N         16.5380    4.6510    8.7150 N.am  426  LYS426     -0.1965
    139  CA        15.7400    4.1510    7.6050 C.3   426  LYS426      0.1728
    140  C         15.6740    5.2390    6.5460 C.2   426  LYS426      0.2616
    141  O         14.9820    6.2470    6.7040 O.2   426  LYS426     -0.2715
    142  CB        14.3390    3.7710    8.1020 C.3   426  LYS426      0.0311
    143  CG        14.3490    2.5450    9.0130 C.3   426  LYS426      0.0038
    144  CD        13.0120    2.3300    9.7020 C.3   426  LYS426      0.0206
    145  CE        12.9870    1.0020   10.4470 C.3   426  LYS426      0.1093
    146  NZ        13.0770   -0.1570    9.5100 N.3   426  LYS426     -0.1314
    147  N         16.4180    5.0250    5.4680 N.am  427  ILE427     -0.1963
    148  CA        16.5060    5.9830    4.3770 C.3   427  ILE427      0.1727
    149  C         15.4980    5.7220    3.2620 C.2   427  ILE427      0.2616
    150  O         15.4320    4.6180    2.7210 O.2   427  ILE427     -0.2715
    151  CB        17.9330    5.9670    3.7730 C.3   427  ILE427      0.0290
    152  CG1       18.9490    6.4460    4.8170 C.3   427  ILE427      0.0022
    153  CG2       17.9830    6.8200    2.5140 C.3   427  ILE427      0.0023
    154  CD1       18.8240    7.9090    5.1880 C.3   427  ILE427      0.0001
    155  N         14.7170    6.7470    2.9320 N.am  428  VAL428     -0.1977
    156  CA        13.7240    6.6640    1.8610 C.3   428  VAL428      0.1596
    157  C         14.4460    6.8880    0.5320 C.2   428  VAL428      0.2287
    158  O         15.1360    7.8890    0.3510 O.2   428  VAL428     -0.2864
    159  CB        12.6220    7.7300    2.0430 C.3   428  VAL428      0.0276
    160  CG1       11.6750    7.7280    0.8430 C.3   428  VAL428      0.0022
    161  CG2       11.8460    7.4470    3.3220 C.3   428  VAL428      0.0022
    162  N         12.8730   10.5340   -1.7730 N.3   431  PRO431     -0.2116
    163  CA        12.2270   11.5310   -0.9160 C.3   431  PRO431      0.1372
    164  C         11.6710   12.7050   -1.7160 C.2   431  PRO431      0.2244
    165  O         12.1940   13.0470   -2.7740 O.2   431  PRO431     -0.2868
    166  CB        13.3520   11.9470    0.0270 C.3   431  PRO431      0.0268
    167  CG        14.5670   11.8510   -0.8580 C.3   431  PRO431      0.0207
    168  CD        14.3350   10.5380   -1.5800 C.3   431  PRO431      0.0892
    169  N         13.8540   17.6520    1.4720 N.3   434  THR434     -0.1218
    170  CA        14.6460   17.4680    2.6810 C.3   434  THR434      0.1862
    171  C         14.4460   18.5360    3.7500 C.2   434  THR434      0.2287
    172  O         14.7270   18.2930    4.9210 O.2   434  THR434     -0.2866
    173  CB        16.1480   17.4110    2.3500 C.3   434  THR434      0.1770
    174  OG1       16.5500   18.6480    1.7430 O.3   434  THR434     -0.2211
    175  CG2       16.4400   16.2570    1.3940 C.3   434  THR434      0.0375
    176  N         13.3140   20.6770    6.7060 N.3   436  GLY436     -0.1210
    177  CA        12.5120   20.3500    7.8720 C.3   436  GLY436      0.1956
    178  C         12.6670   18.9570    8.4630 C.2   436  GLY436      0.2612
    179  O         12.1620   18.7040    9.5560 O.2   436  GLY436     -0.2717
    180  N         13.3430   18.0430    7.7710 N.am  437  ILE437     -0.1965
    181  CA        13.5020   16.7000    8.3260 C.3   437  ILE437      0.1727
    182  C         14.3340   16.7690    9.6030 C.2   437  ILE437      0.2616
    183  O         14.0460   16.0810   10.5850 O.2   437  ILE437     -0.2715
    184  CB        14.1770   15.7300    7.3360 C.3   437  ILE437      0.0290
    185  CG1       13.3180   15.5970    6.0740 C.3   437  ILE437      0.0022
    186  CG2       14.3220   14.3450    7.9840 C.3   437  ILE437      0.0023
    187  CD1       13.8730   14.6310    5.0490 C.3   437  ILE437      0.0001
    188  N         15.3640   17.6060    9.5880 N.am  438  GLY438     -0.1955
    189  CA        16.1980   17.7480   10.7650 C.3   438  GLY438      0.1869
    190  C         15.3880   18.1890   11.9700 C.2   438  GLY438      0.2309
    191  O         15.6170   17.7190   13.0850 O.2   438  GLY438     -0.2863
    192  N         13.4160   15.3150   13.2900 N.3   441  ILE441     -0.1245
    193  CA        14.3180   14.4110   14.0000 C.3   441  ILE441      0.1561
    194  C         14.6310   14.9050   15.4170 C.2   441  ILE441      0.2260
    195  O         14.4140   14.1920   16.4000 O.2   441  ILE441     -0.2867
    196  CB        15.6510   14.2480   13.2170 C.3   441  ILE441      0.0252
    197  CG1       15.4070   13.4310   11.9420 C.3   441  ILE441      0.0019
    198  CG2       16.7170   13.5940   14.1080 C.3   441  ILE441      0.0019
    199  CD1       16.6260   13.3400   11.0080 C.3   441  ILE441      0.0001
@<TRIPOS>BOND
     1   165   164    2
     2     6     7    1
     3     9     8    2
     4     8    17   am
     5     8     7    1
     6    18    17    1
     7    18    21    1
     8    18    19    1
     9   162   168    1
    10   162   163    1
    11     7    10    1
    12   164   163    1
    13    21    22    1
    14   168   167    1
    15    29    28    2
    16    24    23   ar
    17    26    19   am
    18    26    27    1
    19   163   166    1
    20   167   166    1
    21    19    20    2
    22    23    22    1
    23    23    25   ar
    24    28    27    1
    25    28    34   am
    26    10    11    1
    27    35    34    1
    28    35    36    1
    29    35    38    1
    30    27    30    1
    31    36    37    2
    32    30    31    1
    33   158   157    2
    34    38    39    1
    35   157   156    1
    36    11    12    1
    37    99    98    1
    38   160   159    1
    39   175   173    1
    40   129   128    2
    41   169   170    1
    42   174   173    1
    43    98    97   ar
    44    98    96   ar
    45    31    33   am
    46    31    32    2
    47    39    40    1
    48   156   159    1
    49   156   155    1
    50    12    13    1
    51   159   161    1
    52    97    95   ar
    53   173   170    1
    54   153   151    1
    55    96    94   ar
    56   128   127    1
    57   170   171    1
    58   150   149    2
    59    40    41    1
    60    13    14    2
    61   155   149   am
    62    95    93   ar
    63   149   148    1
    64     1     2    1
    65    94    93   ar
    66     2     3    1
    67     2     5    1
    68   127   130    1
    69   127   126    1
    70   171   172    2
    71   151   148    1
    72   151   152    1
    73    93    92    1
    74    14    16    1
    75    14    15    1
    76    43    42    1
    77     3     4    2
    78    41    42    2
    79   148   147    1
    80    42    44    1
    81   152   154    1
    82    92    89    1
    83   187   185    1
    84   124   123    2
    85   147   140   am
    86   185   184    1
    87    91    90    2
    88    89    90    1
    89    89    88    1
    90   140   141    2
    91   140   139    1
    92    90   100   am
    93   123   122    1
    94   176   177    1
    95    61    59   ar
    96   122   125    1
    97   122   121    1
    98   119   118    2
    99   100   101    1
   100    88    83   am
   101   184   186    1
   102   184   181    1
   103   101   102    1
   104    59    58    1
   105    59    60   ar
   106   139   142    1
   107   139   138    1
   108   180   181    1
   109   180   178   am
   110    58    57    1
   111   177   178    1
   112   134   133    2
   113   142   143    1
   114    86    85    1
   115   118   121   am
   116   118   117    1
   117   181   182    1
   118   178   179    2
   119    83    84    2
   120    83    82    1
   121   138   133   am
   122   136   135    1
   123   133   132    1
   124   102   103    2
   125   143   144    1
   126    52    50   am
   127    57    54    1
   128    82    85    1
   129    82    81    1
   130    85    87    1
   131   146   145    1
   132   117   120    1
   133   117   116    1
   134   188   182   am
   135   188   189    1
   136   182   183    2
   137   144   145    1
   138   135   132    1
   139   135   137    1
   140    55    54    1
   141    55    56    2
   142    50    51    2
   143    50    49    1
   144   132   131    1
   145    54    53    1
   146    49    46    1
   147    53    47   am
   148    62    63    1
   149   189   190    1
   150    81    73   am
   151   199   197    1
   152    70    68   ar
   153    78    80   ar
   154    78    76   ar
   155    74    73    2
   156   115   114    1
   157    80    79   ar
   158    47    46    1
   159    47    48    2
   160    73    72    1
   161    67    68    1
   162    67    66    1
   163    46    45    1
   164    68    69   ar
   165   112   114   ar
   166   112   110   ar
   167    63    66    1
   168    63    64    1
   169   197   196    1
   170   190   191    2
   171   114   113   ar
   172    76    75    1
   173    76    77   ar
   174   110   109   ar
   175    75    72    1
   176    79    77   ar
   177    64    65    2
   178    72    71    1
   179   196   193    1
   180   196   198    1
   181   192   193    1
   182   104   105    1
   183   113   111   ar
   184   193   194    1
   185   109   111   ar
   186   109   108    1
   187   105   108    1
   188   105   106    1
   189   194   195    2
   190   106   107    2
