@<TRIPOS>MOLECULE
tmp/1ua4A01.pdb
 128 115 0 0 0
SMALL
GASTEIGER

@<TRIPOS>ATOM
      1  N         11.9960   31.3080   15.8080 N.3    29  ASN29      -0.1240
      2  CA        11.8070   31.5030   14.3810 C.3    29  ASN29       0.1653
      3  C         10.6880   30.7130   13.7150 C.2    29  ASN29       0.2266
      4  O         10.6520   29.4790   13.7440 O.2    29  ASN29      -0.2867
      5  CB        13.1400   31.2810   13.6450 C.3    29  ASN29       0.1155
      6  CG        13.7650   29.9220   13.9350 C.2    29  ASN29       0.2627
      7  OD1       13.7160   29.4250   15.0600 O.2    29  ASN29      -0.2716
      8  ND2       14.3800   29.3280   12.9180 N.am   29  ASN29      -0.0877
      9  N          8.3600   31.0980    9.9910 N.3    31  ASN31      -0.1240
     10  CA         8.2290   31.8220    8.7330 C.3    31  ASN31       0.1653
     11  C          7.4790   30.9970    7.7040 C.2    31  ASN31       0.2266
     12  O          6.9330   29.9350    8.0150 O.2    31  ASN31      -0.2867
     13  CB         9.6130   32.2130    8.1900 C.3    31  ASN31       0.1155
     14  CG        10.4640   31.0080    7.8060 C.2    31  ASN31       0.2627
     15  OD1       10.4000   30.5130    6.6770 O.2    31  ASN31      -0.2716
     16  ND2       11.2610   30.5290    8.7480 N.am   31  ASN31      -0.0877
     17  N          7.9170   29.0570    4.1510 N.3    33  ASP33      -0.1239
     18  CA         8.9300   28.4940    3.2640 C.3    33  ASP33       0.1674
     19  C          8.3820   28.3540    1.8530 C.2    33  ASP33       0.2266
     20  O          7.3650   27.6870    1.6440 O.2    33  ASP33      -0.2867
     21  CB         9.3720   27.1010    3.7410 C.3    33  ASP33       0.1410
     22  CG        10.5340   27.1430    4.7220 C.2    33  ASP33       0.3668
     23  OD1       10.9910   28.2470    5.0890 O.co2  33  ASP33      -0.2456
     24  OD2       10.9960   26.0540    5.1250 O.co2  33  ASP33      -0.2456
     25  N         22.5250   27.5990    4.6170 N.3    87  GLU87      -0.1245
     26  CA        21.5300   28.6600    4.6370 C.3    87  GLU87       0.1567
     27  C         22.2340   29.9930    4.8120 C.2    87  GLU87       0.2260
     28  O         23.1000   30.1280    5.6730 O.2    87  GLU87      -0.2867
     29  CB        20.5390   28.4590    5.7940 C.3    87  GLU87       0.0388
     30  CG        19.6440   29.6790    6.0370 C.3    87  GLU87       0.1160
     31  CD        18.6020   29.4710    7.1280 C.2    87  GLU87       0.3649
     32  OE1       18.6980   28.4880    7.8890 O.co2  87  GLU87      -0.2457
     33  OE2       17.6820   30.3070    7.2230 O.co2  87  GLU87      -0.2457
     34  N         10.6610   27.4450    9.5040 N.3   111  GLY111     -0.1210
     35  CA        11.2870   27.8300   10.7560 C.3   111  GLY111      0.1956
     36  C         11.2860   26.7060   11.7720 C.2   111  GLY111      0.2611
     37  O         10.3630   25.8910   11.7960 O.2   111  GLY111     -0.2717
     38  N         12.3140   26.6570   12.6170 N.am  112  GLN112     -0.1979
     39  CA        12.3900   25.6140   13.6340 C.3   112  GLN112      0.1601
     40  C         11.1420   25.6050   14.5140 C.2   112  GLN112      0.2287
     41  O         10.4950   24.5730   14.6720 O.2   112  GLN112     -0.2864
     42  CB        13.6300   25.8030   14.5200 C.3   112  GLN112      0.0394
     43  CG        14.8960   25.1030   14.0320 C.3   112  GLN112      0.0908
     44  CD        15.4020   25.6270   12.6990 C.2   112  GLN112      0.2608
     45  OE1       15.5850   26.8300   12.5200 O.2   112  GLN112     -0.2717
     46  NE2       15.6460   24.7180   11.7600 N.am  112  GLN112     -0.0878
     47  N          7.7890   24.7340   12.3310 N.3   115  ILE115     -0.1245
     48  CA         7.7250   23.3430   11.9000 C.3   115  ILE115      0.1561
     49  C          7.5340   22.4020   13.0880 C.2   115  ILE115      0.2260
     50  O          6.7320   21.4680   13.0300 O.2   115  ILE115     -0.2867
     51  CB         9.0080   22.9650   11.1110 C.3   115  ILE115      0.0252
     52  CG1        9.0080   23.7030    9.7660 C.3   115  ILE115      0.0019
     53  CG2        9.0860   21.4650   10.8990 C.3   115  ILE115      0.0019
     54  CD1       10.3040   23.5570    8.9680 C.3   115  ILE115      0.0001
     55  N         11.1830   32.6520    3.1980 N.3   175  HIS175     -0.1241
     56  CA        12.5040   32.0470    3.0800 C.3   175  HIS175      0.1621
     57  C         12.3620   31.1410    1.8650 C.2   175  HIS175      0.2264
     58  O         11.3780   30.4100    1.7560 O.2   175  HIS175     -0.2867
     59  CB        12.8600   31.1970    4.3060 C.3   175  HIS175      0.0745
     60  CG        13.1710   31.9960    5.5320 C.ar  175  HIS175      0.0817
     61  ND1       13.7510   31.4380    6.6510 N.ar  175  HIS175     -0.2268
     62  CD2       12.9700   33.3030    5.8250 C.ar  175  HIS175      0.1154
     63  CE1       13.8930   32.3660    7.5810 C.ar  175  HIS175      0.1986
     64  NE2       13.4280   33.5070    7.1040 N.ar  175  HIS175     -0.2212
     65  N         13.4860   27.9620   -0.3680 N.3   177  ILE177     -0.1245
     66  CA        14.1450   26.6650   -0.2390 C.3   177  ILE177      0.1561
     67  C         14.4110   26.0520   -1.6090 C.2   177  ILE177      0.2260
     68  O         13.4800   25.7780   -2.3640 O.2   177  ILE177     -0.2867
     69  CB        13.2670   25.6740    0.5530 C.3   177  ILE177      0.0252
     70  CG1       12.5940   26.3950    1.7270 C.3   177  ILE177      0.0019
     71  CG2       14.1220   24.5140    1.0580 C.3   177  ILE177      0.0019
     72  CD1       13.5650   27.0240    2.7210 C.3   177  ILE177      0.0001
     73  N         19.3080   20.6220    0.2120 N.3   196  ARG196     -0.1245
     74  CA        18.7450   21.9120   -0.1730 C.3   196  ARG196      0.1563
     75  C         19.5680   23.0900    0.3250 C.2   196  ARG196      0.2260
     76  O         20.3590   22.9610    1.2600 O.2   196  ARG196     -0.2867
     77  CB        17.3160   22.0470    0.3820 C.3   196  ARG196      0.0307
     78  CG        17.2360   22.5230    1.8410 C.3   196  ARG196      0.0489
     79  CD        17.9190   21.5590    2.8040 C.3   196  ARG196      0.2205
     80  NE        17.8100   21.9750    4.2060 N.pl3 196  ARG196     -0.0865
     81  CZ        18.5090   22.9620    4.7630 C.cat 196  ARG196      0.5346
     82  NH1       19.3820   23.6600    4.0460 N.pl3 196  ARG196      0.1354
     83  NH2       18.3430   23.2440    6.0490 N.pl3 196  ARG196      0.1354
     84  N         19.1090   27.1710    1.5280 N.3   198  ILE198     -0.1245
     85  CA        18.0880   28.1250    1.9350 C.3   198  ILE198      0.1561
     86  C         18.5460   29.5740    1.8920 C.2   198  ILE198      0.2260
     87  O         19.5820   29.9310    2.4530 O.2   198  ILE198     -0.2867
     88  CB        17.6020   27.8360    3.3690 C.3   198  ILE198      0.0252
     89  CG1       17.0260   26.4210    3.4510 C.3   198  ILE198      0.0019
     90  CG2       16.5500   28.8700    3.7840 C.3   198  ILE198      0.0019
     91  CD1       16.5890   26.0400    4.8450 C.3   198  ILE198      0.0001
     92  N         20.9590   31.4540   14.7040 N.3   234  GLN234     -0.1245
     93  CA        21.8410   31.2710   13.5490 C.3   234  GLN234      0.1566
     94  C         21.9270   32.4300   12.5600 C.2   234  GLN234      0.2260
     95  O         22.9290   32.5720   11.8560 O.2   234  GLN234     -0.2867
     96  CB        21.4430   30.0070   12.7750 C.3   234  GLN234      0.0367
     97  CG        20.0170   30.0290   12.2370 C.3   234  GLN234      0.0905
     98  CD        19.0210   29.4210   13.2050 C.2   234  GLN234      0.2608
     99  OE1       19.1780   29.5270   14.4190 O.2   234  GLN234     -0.2717
    100  NE2       17.9850   28.7830   12.6700 N.am  234  GLN234     -0.0878
    101  N         21.8450   25.5150   13.9370 N.3   267  ALA267     -0.1245
    102  CA        21.5710   25.6410   12.5180 C.3   267  ALA267      0.1562
    103  C         22.8090   26.2900   11.9270 C.2   267  ALA267      0.2260
    104  O         23.6680   26.7580   12.6660 O.2   267  ALA267     -0.2867
    105  CB        20.3430   26.5130   12.2920 C.3   267  ALA267      0.0290
    106  N         13.9560   19.7100    3.3600 N.3   435  VAL435     -0.1231
    107  CA        13.7710   20.7880    4.3260 C.3   435  VAL435      0.1692
    108  C         12.8710   20.3770    5.4890 C.2   435  VAL435      0.2592
    109  O         11.8090   19.7850    5.2920 O.2   435  VAL435     -0.2718
    110  CB        13.1870   22.0690    3.6580 C.3   435  VAL435      0.0266
    111  CG1       11.7500   21.8360    3.2190 C.3   435  VAL435      0.0020
    112  CG2       13.2660   23.2450    4.6310 C.3   435  VAL435      0.0020
    113  N         13.3140   20.6770    6.7060 N.am  436  GLY436     -0.1957
    114  CA        12.5120   20.3500    7.8720 C.3   436  GLY436      0.1869
    115  C         12.6670   18.9570    8.4630 C.2   436  GLY436      0.2309
    116  O         12.1620   18.7040    9.5560 O.2   436  GLY436     -0.2863
    117  N         15.3640   17.6060    9.5880 N.3   438  GLY438     -0.1210
    118  CA        16.1980   17.7480   10.7650 C.3   438  GLY438      0.1956
    119  C         15.3880   18.1890   11.9700 C.2   438  GLY438      0.2611
    120  O         15.6170   17.7190   13.0850 O.2   438  GLY438     -0.2717
    121  N         14.4340   19.0910   11.7520 N.am  439  ASP439     -0.1973
    122  CA        13.6050   19.5860   12.8520 C.3   439  ASP439      0.1709
    123  C         12.7190   18.4750   13.3940 C.2   439  ASP439      0.2293
    124  O         12.4890   18.3760   14.6040 O.2   439  ASP439     -0.2864
    125  CB        12.7350   20.7580   12.3940 C.3   439  ASP439      0.1436
    126  CG        13.5530   21.9400   11.9090 C.2   439  ASP439      0.3671
    127  OD1       14.6170   22.2200   12.4960 O.co2 439  ASP439     -0.2456
    128  OD2       13.1220   22.6020   10.9460 O.co2 439  ASP439     -0.2456
@<TRIPOS>BOND
     1    68    67    2
     2    67    66    1
     3    65    66    1
     4    66    69    1
     5    74    73    1
     6    74    75    1
     7    74    77    1
     8    75    76    2
     9    77    78    1
    10    69    71    1
    11    69    70    1
    12    84    85    1
    13    20    19    2
    14    70    72    1
    15    58    57    2
    16    78    79    1
    17    19    18    1
    18    57    56    1
    19    86    85    1
    20    86    87    2
    21    85    88    1
    22    79    80    1
    23    56    55    1
    24    56    59    1
    25   111   110    1
    26    18    21    1
    27    18    17    1
    28   106   107    1
    29    88    89    1
    30    88    90    1
    31    89    91    1
    32   110   107    1
    33   110   112    1
    34    21    22    1
    35    82    81    1
    36    80    81    2
    37    59    60    1
    38   107   108    1
    39    25    26    1
    40    26    27    1
    41    26    29    1
    42    22    23   ar
    43    22    24   ar
    44    81    83    1
    45    27    28    2
    46   109   108    2
    47   108   113   am
    48    60    62   ar
    49    60    61   ar
    50    29    30    1
    51    62    64   ar
    52    30    31    1
    53    61    63   ar
    54    15    14    2
    55   113   114    1
    56    64    63   ar
    57    31    33   ar
    58    31    32   ar
    59    11    12    2
    60    11    10    1
    61    14    13    1
    62    14    16   am
    63   114   115    1
    64    13    10    1
    65   115   116    2
    66    10     9    1
    67    54    52    1
    68    34    35    1
    69   117   118    1
    70    52    51    1
    71    35    36    1
    72   118   119    1
    73    53    51    1
    74   128   126   ar
    75    51    48    1
    76   121   119   am
    77   121   122    1
    78    46    44   am
    79    36    37    2
    80    36    38   am
    81    95    94    2
    82    48    47    1
    83    48    49    1
    84   126   125    1
    85   126   127   ar
    86   103   102    1
    87   103   104    2
    88   119   120    2
    89    97    96    1
    90    97    98    1
    91   105   102    1
    92   125   122    1
    93   102   101    1
    94    45    44    2
    95    94    93    1
    96    38    39    1
    97   100    98   am
    98    44    43    1
    99    96    93    1
   100   122   123    1
   101     8     6   am
   102    50    49    2
   103    98    99    2
   104   123   124    2
   105    93    92    1
   106    39    40    1
   107    39    42    1
   108     5     6    1
   109     5     2    1
   110     3     4    2
   111     3     2    1
   112     6     7    2
   113    43    42    1
   114     2     1    1
   115    40    41    2
