@<TRIPOS>MOLECULE
tmp/1ua7A00.pdb
 245 238 0 0 0
SMALL
GASTEIGER

@<TRIPOS>ATOM
      1  N         -1.9710   38.2400   24.8740 N.3    55  TRP55      -0.1227
      2  CA        -2.8720   37.1140   25.0640 C.3    55  TRP55       0.1737
      3  C         -4.2590   37.2870   24.4630 C.2    55  TRP55       0.2595
      4  O         -4.8790   36.3110   24.0480 O.2    55  TRP55      -0.2718
      5  CB        -3.0530   36.8360   26.5510 C.3    55  TRP55       0.0564
      6  CG        -3.7760   37.9440   27.2600 C.ar   55  TRP55       0.0003
      7  CD1       -3.2210   39.0550   27.8250 C.ar   55  TRP55       0.0946
      8  CD2       -5.1940   38.0550   27.4680 C.ar   55  TRP55       0.0152
      9  NE1       -4.2000   39.8490   28.3760 N.ar   55  TRP55      -0.2442
     10  CE2       -5.4200   39.2600   28.1720 C.ar   55  TRP55       0.0810
     11  CE3       -6.2940   37.2520   27.1280 C.ar   55  TRP55       0.0012
     12  CZ2       -6.7060   39.6840   28.5470 C.ar   55  TRP55       0.0191
     13  CZ3       -7.5780   37.6740   27.5000 C.ar   55  TRP55       0.0001
     14  CH2       -7.7690   38.8790   28.2040 C.ar   55  TRP55       0.0015
     15  N         -4.7420   38.5230   24.4190 N.am   56  TYR56      -0.1976
     16  CA        -6.0920   38.7980   23.9310 C.3    56  TYR56       0.1639
     17  C         -6.3960   38.6120   22.4440 C.2    56  TYR56       0.2290
     18  O         -7.5720   38.5150   22.0620 O.2    56  TYR56      -0.2864
     19  CB        -6.5080   40.2100   24.3410 C.3    56  TYR56       0.0560
     20  CG        -5.6560   41.2830   23.7170 C.ar   56  TYR56      -0.0198
     21  CD1       -4.4110   41.6150   24.2560 C.ar   56  TYR56      -0.0009
     22  CD2       -6.0780   41.9470   22.5630 C.ar   56  TYR56      -0.0009
     23  CE1       -3.6040   42.5830   23.6580 C.ar   56  TYR56       0.0417
     24  CE2       -5.2780   42.9190   21.9580 C.ar   56  TYR56       0.0417
     25  CZ        -4.0460   43.2290   22.5090 C.ar   56  TYR56       0.1957
     26  OH        -3.2600   44.1830   21.9080 O.3    56  TYR56      -0.2866
     27  N         -8.7630   35.9510   21.0100 N.3    59  TYR59      -0.1227
     28  CA       -10.2040   36.1330   21.0810 C.3    59  TYR59       0.1736
     29  C        -10.7540   37.0100   19.9630 C.2    59  TYR59       0.2595
     30  O        -11.8260   37.6050   20.0990 O.2    59  TYR59      -0.2718
     31  CB       -10.5860   36.7080   22.4470 C.3    59  TYR59       0.0548
     32  CG       -10.4610   35.6870   23.5490 C.ar   59  TYR59      -0.0200
     33  CD1      -11.3600   34.6320   23.6460 C.ar   59  TYR59      -0.0009
     34  CD2       -9.4060   35.7320   24.4470 C.ar   59  TYR59      -0.0009
     35  CE1      -11.2070   33.6360   24.6090 C.ar   59  TYR59       0.0417
     36  CE2       -9.2400   34.7420   25.4150 C.ar   59  TYR59       0.0417
     37  CZ       -10.1420   33.6950   25.4850 C.ar   59  TYR59       0.1957
     38  OH        -9.9560   32.6920   26.4050 O.3    59  TYR59      -0.2866
     39  N        -10.0220   37.0730   18.8530 N.am   60  GLN60      -0.1979
     40  CA       -10.4280   37.8640   17.6960 C.3    60  GLN60       0.1601
     41  C        -10.4020   37.0270   16.4210 C.2    60  GLN60       0.2287
     42  O         -9.4900   37.1530   15.6060 O.2    60  GLN60      -0.2864
     43  CB        -9.5110   39.0730   17.5330 C.3    60  GLN60       0.0394
     44  CG        -9.7330   40.1300   18.5900 C.3    60  GLN60       0.0908
     45  CD        -9.0460   41.4360   18.2640 C.2    60  GLN60       0.2608
     46  OE1       -9.1200   41.9270   17.1340 O.2    60  GLN60      -0.2717
     47  NE2       -8.3830   42.0180   19.2570 N.am   60  GLN60      -0.0878
     48  N        -15.1480   30.6630   20.5490 N.3    96  VAL96      -0.1245
     49  CA       -15.4930   32.0750   20.4630 C.3    96  VAL96       0.1561
     50  C        -16.4290   32.2440   19.2650 C.2    96  VAL96       0.2260
     51  O        -15.9930   32.6010   18.1720 O.2    96  VAL96      -0.2867
     52  CB       -14.2280   32.9280   20.2560 C.3    96  VAL96       0.0252
     53  CG1      -14.5620   34.4010   20.4180 C.3    96  VAL96       0.0019
     54  CG2      -13.1470   32.5020   21.2550 C.3    96  VAL96       0.0019
     55  N        -18.7160   36.4820   18.2960 N.3    99  HIS99      -0.1241
     56  CA       -18.1710   37.5470   17.4670 C.3    99  HIS99       0.1621
     57  C        -16.8820   37.1790   16.7470 C.2    99  HIS99       0.2264
     58  O        -16.3310   36.0940   16.9230 O.2    99  HIS99      -0.2867
     59  CB       -17.8690   38.7450   18.3520 C.3    99  HIS99       0.0745
     60  CG       -16.9800   38.4040   19.5030 C.ar   99  HIS99       0.0817
     61  ND1      -17.4710   38.0340   20.7360 N.ar   99  HIS99      -0.2268
     62  CD2      -15.6350   38.2620   19.5760 C.ar   99  HIS99       0.1154
     63  CE1      -16.4690   37.6730   21.5170 C.ar   99  HIS99       0.1986
     64  NE2      -15.3440   37.8020   20.8360 N.ar   99  HIS99      -0.2212
     65  N        -12.5180   42.8710   15.5540 N.3   102  PHE102     -0.1241
     66  CA       -13.1200   44.1810   15.3500 C.3   102  PHE102      0.1605
     67  C        -12.6830   44.7300   14.0020 C.2   102  PHE102      0.2264
     68  O        -13.4040   45.5100   13.3820 O.2   102  PHE102     -0.2867
     69  CB       -12.6560   45.1610   16.4230 C.3   102  PHE102      0.0534
     70  CG       -11.2020   45.5170   16.3100 C.ar  102  PHE102     -0.0203
     71  CD1      -10.2200   44.6360   16.7540 C.ar  102  PHE102     -0.0042
     72  CD2      -10.8120   46.7070   15.7130 C.ar  102  PHE102     -0.0042
     73  CE1       -8.8700   44.9310   16.6050 C.ar  102  PHE102     -0.0003
     74  CE2       -9.4610   47.0170   15.5560 C.ar  102  PHE102     -0.0003
     75  CZ        -8.4870   46.1230   16.0040 C.ar  102  PHE102     -0.0000
     76  N        -21.0190   46.3840   14.4430 N.3   121  ASN121     -0.1240
     77  CA       -20.0230   46.6150   15.4890 C.3   121  ASN121      0.1653
     78  C        -20.3890   47.7610   16.4320 C.2   121  ASN121      0.2266
     79  O        -19.5000   48.3980   17.0050 O.2   121  ASN121     -0.2867
     80  CB       -18.6530   46.9050   14.8660 C.3   121  ASN121      0.1155
     81  CG       -18.6430   48.1800   14.0390 C.2   121  ASN121      0.2627
     82  OD1      -19.6920   48.7530   13.7450 O.2   121  ASN121     -0.2716
     83  ND2      -17.4510   48.6210   13.6450 N.am  121  ASN121     -0.0877
     84  N        -21.0380   49.1570   19.6330 N.3   123  GLN123     -0.1245
     85  CA       -20.7610   48.7340   21.0010 C.3   123  GLN123      0.1566
     86  C        -21.9060   48.8460   21.9940 C.2   123  GLN123      0.2260
     87  O        -22.5920   49.8620   22.0620 O.2   123  GLN123     -0.2867
     88  CB       -19.5510   49.4800   21.5590 C.3   123  GLN123      0.0367
     89  CG       -19.0280   48.8450   22.8320 C.3   123  GLN123      0.0905
     90  CD       -17.7690   49.5000   23.3560 C.2   123  GLN123      0.2608
     91  OE1      -17.1070   48.9640   24.2500 O.2   123  GLN123     -0.2717
     92  NE2      -17.4310   50.6640   22.8100 N.am  123  GLN123     -0.0878
     93  N        -25.9900   47.5210   29.7450 N.3   127  TRP127     -0.1241
     94  CA       -25.8100   46.1420   30.1810 C.3   127  TRP127      0.1605
     95  C        -26.9750   45.6010   30.9940 C.2   127  TRP127      0.2264
     96  O        -26.8460   44.5840   31.6700 O.2   127  TRP127     -0.2867
     97  CB       -24.5190   45.9990   30.9810 C.3   127  TRP127      0.0550
     98  CG       -23.3160   46.0900   30.1210 C.ar  127  TRP127      0.0003
     99  CD1      -22.7640   47.2240   29.6000 C.ar  127  TRP127      0.0946
    100  CD2      -22.5440   44.9990   29.6200 C.ar  127  TRP127      0.0152
    101  NE1      -21.6940   46.9060   28.8030 N.ar  127  TRP127     -0.2442
    102  CE2      -21.5350   45.5460   28.7960 C.ar  127  TRP127      0.0810
    103  CE3      -22.6040   43.6090   29.7860 C.ar  127  TRP127      0.0012
    104  CZ2      -20.5930   44.7510   28.1370 C.ar  127  TRP127      0.0191
    105  CZ3      -21.6650   42.8150   29.1300 C.ar  127  TRP127      0.0001
    106  CH2      -20.6730   43.3910   28.3160 C.ar  127  TRP127      0.0015
    107  N        -19.7110   43.6280   21.4810 N.3   138  LEU138     -0.1231
    108  CA       -18.9290   43.6100   22.7070 C.3   138  LEU138      0.1693
    109  C        -17.5530   44.1660   22.3450 C.2   138  LEU138      0.2592
    110  O        -16.8390   43.5820   21.5290 O.2   138  LEU138     -0.2718
    111  CB       -18.7770   42.1750   23.2240 C.3   138  LEU138      0.0284
    112  CG       -17.7890   41.9440   24.3800 C.3   138  LEU138      0.0019
    113  CD1      -18.3080   42.6120   25.6480 C.3   138  LEU138      0.0001
    114  CD2      -17.5990   40.4470   24.6060 C.3   138  LEU138      0.0001
    115  N        -17.1960   45.3020   22.9370 N.am  139  LEU139     -0.1966
    116  CA       -15.9000   45.9280   22.6890 C.3   139  LEU139      0.1728
    117  C        -15.6240   46.2660   21.2260 C.2   139  LEU139      0.2617
    118  O        -14.4710   46.4720   20.8520 O.2   139  LEU139     -0.2715
    119  CB       -14.7720   45.0270   23.2040 C.3   139  LEU139      0.0311
    120  CG       -14.7120   44.7280   24.7020 C.3   139  LEU139      0.0022
    121  CD1      -13.6290   43.6780   24.9610 C.3   139  LEU139      0.0001
    122  CD2      -14.4260   46.0120   25.4800 C.3   139  LEU139      0.0001
    123  N        -16.6660   46.3180   20.4020 N.am  140  GLY140     -0.1940
    124  CA       -16.4670   46.6410   18.9960 C.3   140  GLY140      0.2014
    125  C        -16.2390   45.4400   18.0930 C.2   140  GLY140      0.2638
    126  O        -16.0840   45.5910   16.8790 O.2   140  GLY140     -0.2714
    127  N        -16.2130   44.2480   18.6870 N.am  141  LEU141     -0.1977
    128  CA       -16.0110   43.0020   17.9420 C.3   141  LEU141      0.1596
    129  C        -17.2680   42.7010   17.1260 C.2   141  LEU141      0.2287
    130  O        -18.3710   42.5990   17.6760 O.2   141  LEU141     -0.2864
    131  CB       -15.7450   41.8560   18.9200 C.3   141  LEU141      0.0297
    132  CG       -14.6190   42.0800   19.9300 C.3   141  LEU141      0.0022
    133  CD1      -14.8440   41.1950   21.1410 C.3   141  LEU141      0.0001
    134  CD2      -13.2670   41.8050   19.2780 C.3   141  LEU141      0.0001
    135  N        -16.2570   25.3930   25.8530 N.3   171  ARG171     -0.1245
    136  CA       -16.3600   26.4890   26.8000 C.3   171  ARG171      0.1563
    137  C        -16.8220   27.5930   25.8590 C.2   171  ARG171      0.2260
    138  O        -16.0520   28.0490   25.0160 O.2   171  ARG171     -0.2867
    139  CB       -14.9840   26.8190   27.3920 C.3   171  ARG171      0.0307
    140  CG       -14.9380   28.0680   28.2660 C.3   171  ARG171      0.0489
    141  CD       -14.4620   29.3090   27.5030 C.3   171  ARG171      0.2205
    142  NE       -14.2870   30.4480   28.4020 N.pl3 171  ARG171     -0.0865
    143  CZ       -14.1340   31.7080   28.0040 C.cat 171  ARG171      0.5346
    144  NH1      -14.1310   32.0080   26.7120 N.pl3 171  ARG171      0.1354
    145  NH2      -13.9850   32.6730   28.9020 N.pl3 171  ARG171      0.1354
    146  N        -17.3250   31.0480   24.9250 N.3   173  ASP173     -0.1225
    147  CA       -16.9170   32.4160   25.2000 C.3   173  ASP173      0.1805
    148  C        -18.0760   33.3830   25.0320 C.2   173  ASP173      0.2597
    149  O        -18.8570   33.2580   24.0980 O.2   173  ASP173     -0.2718
    150  CB       -15.8080   32.8290   24.2300 C.3   173  ASP173      0.1424
    151  CG       -15.3750   34.2660   24.4250 C.2   173  ASP173      0.3668
    152  OD1      -14.6990   34.5330   25.4330 O.co2 173  ASP173     -0.2456
    153  OD2      -15.7140   35.1260   23.5820 O.co2 173  ASP173     -0.2456
    154  N        -18.1680   34.3550   25.9320 N.am  174  ALA174     -0.1979
    155  CA       -19.2070   35.3740   25.8670 C.3   174  ALA174      0.1597
    156  C        -20.5780   34.8000   25.5480 C.2   174  ALA174      0.2287
    157  O        -21.3400   35.4020   24.7840 O.2   174  ALA174     -0.2864
    158  CB       -18.8280   36.4240   24.8140 C.3   174  ALA174      0.0319
    159  N        -23.1390   34.7950   27.2010 N.3   176  LYS176     -0.1231
    160  CA       -24.2030   35.6940   27.6360 C.3   176  LYS176      0.1693
    161  C        -24.6270   36.6760   26.5400 C.2   176  LYS176      0.2592
    162  O        -25.6860   37.3030   26.6280 O.2   176  LYS176     -0.2718
    163  CB       -23.7590   36.4850   28.8700 C.3   176  LYS176      0.0285
    164  CG       -24.8490   37.3850   29.4290 C.3   176  LYS176      0.0035
    165  CD       -24.4390   38.0530   30.7280 C.3   176  LYS176      0.0206
    166  CE       -23.3150   39.0340   30.5280 C.3   176  LYS176      0.1093
    167  NZ       -23.0620   39.7820   31.7900 N.3   176  LYS176     -0.1314
    168  N        -23.8120   36.7880   25.4980 N.am  177  HIS177     -0.1976
    169  CA       -24.0960   37.7160   24.4100 C.3   177  HIS177      0.1656
    170  C        -24.7820   37.1120   23.1970 C.2   177  HIS177      0.2291
    171  O        -24.8030   37.7070   22.1200 O.2   177  HIS177     -0.2864
    172  CB       -22.8080   38.4120   24.0050 C.3   177  HIS177      0.0771
    173  CG       -22.1790   39.1770   25.1240 C.ar  177  HIS177      0.0820
    174  ND1      -22.6210   40.4230   25.5110 N.ar  177  HIS177     -0.2267
    175  CD2      -21.1830   38.8470   25.9800 C.ar  177  HIS177      0.1154
    176  CE1      -21.9230   40.8290   26.5570 C.ar  177  HIS177      0.1986
    177  NE2      -21.0450   39.8910   26.8620 N.ar  177  HIS177     -0.2212
    178  N        -19.4750   30.8520   29.3980 N.3   205  GLU205     -0.1245
    179  CA       -18.9850   31.9220   30.2530 C.3   205  GLU205      0.1567
    180  C        -20.1020   32.9430   30.3810 C.2   205  GLU205      0.2260
    181  O        -20.3530   33.7280   29.4670 O.2   205  GLU205     -0.2867
    182  CB       -17.7620   32.6290   29.6610 C.3   205  GLU205      0.0388
    183  CG       -17.4050   33.8740   30.4700 C.3   205  GLU205      0.1160
    184  CD       -16.8540   35.0030   29.6310 C.2   205  GLU205      0.3649
    185  OE1      -17.1920   35.0740   28.4260 O.co2 205  GLU205     -0.2457
    186  OE2      -16.0970   35.8310   30.1840 O.co2 205  GLU205     -0.2457
    187  N        -20.8410   35.7300   32.9230 N.3   207  LEU207     -0.1231
    188  CA       -20.4830   36.5160   34.0930 C.3   207  LEU207      0.1693
    189  C        -21.7750   37.1260   34.6110 C.2   207  LEU207      0.2592
    190  O        -22.5410   37.7310   33.8630 O.2   207  LEU207     -0.2718
    191  CB       -19.4550   37.5930   33.7360 C.3   207  LEU207      0.0284
    192  CG       -18.1530   37.0990   33.0870 C.3   207  LEU207      0.0019
    193  CD1      -17.1410   38.2380   33.0610 C.3   207  LEU207      0.0001
    194  CD2      -17.5840   35.9040   33.8550 C.3   207  LEU207      0.0001
    195  N        -21.9970   36.9530   35.9080 N.am  208  GLN208     -0.1966
    196  CA       -23.2100   37.3910   36.5790 C.3   208  GLN208      0.1733
    197  C        -23.4820   38.8780   36.8010 C.2   208  GLN208      0.2616
    198  O        -22.5940   39.6520   37.1650 O.2   208  GLN208     -0.2715
    199  CB       -23.3060   36.6680   37.9260 C.3   208  GLN208      0.0408
    200  CG       -23.3530   35.1510   37.8130 C.3   208  GLN208      0.0908
    201  CD       -23.3160   34.4670   39.1650 C.2   208  GLN208      0.2608
    202  OE1      -22.2770   34.4140   39.8270 O.2   208  GLN208     -0.2717
    203  NE2      -24.4600   33.9490   39.5890 N.am  208  GLN208     -0.0878
    204  N        -24.7370   39.2460   36.5620 N.am  209  ASP209     -0.1971
    205  CA       -25.2540   40.5940   36.7760 C.3   209  ASP209      0.1709
    206  C        -26.7770   40.5140   36.7440 C.2   209  ASP209      0.2293
    207  O        -27.3460   39.4480   36.4820 O.2   209  ASP209     -0.2864
    208  CB       -24.7350   41.6090   35.7390 C.3   209  ASP209      0.1436
    209  CG       -25.1160   41.2670   34.3150 C.2   209  ASP209      0.3671
    210  OD1      -26.2200   40.7340   34.0840 O.co2 209  ASP209     -0.2456
    211  OD2      -24.3080   41.5630   33.4120 O.co2 209  ASP209     -0.2456
    212  N         -8.9030   33.6670   33.7110 N.3   265  HIS265     -0.1226
    213  CA        -7.8510   34.2980   32.9390 C.3   265  HIS265      0.1752
    214  C         -8.1720   35.7900   32.8530 C.2   265  HIS265      0.2596
    215  O         -7.2660   36.6180   32.8820 O.2   265  HIS265     -0.2718
    216  CB        -7.6970   33.6590   31.5320 C.3   265  HIS265      0.0759
    217  CG        -8.8490   33.8940   30.6010 C.ar  265  HIS265      0.0818
    218  ND1       -9.9860   33.1130   30.6050 N.ar  265  HIS265     -0.2268
    219  CD2       -9.0220   34.8050   29.6130 C.ar  265  HIS265      0.1154
    220  CE1      -10.8070   33.5310   29.6560 C.ar  265  HIS265      0.1986
    221  NE2      -10.2450   34.5560   29.0400 N.ar  265  HIS265     -0.2212
    222  N         -9.4580   36.1400   32.7990 N.am  266  ASP266     -0.1974
    223  CA        -9.8370   37.5500   32.7180 C.3   266  ASP266      0.1709
    224  C         -9.4850   38.3540   33.9600 C.2   266  ASP266      0.2293
    225  O         -8.9050   39.4360   33.8530 O.2   266  ASP266     -0.2864
    226  CB       -11.3350   37.7220   32.4380 C.3   266  ASP266      0.1436
    227  CG       -11.6640   37.6740   30.9520 C.2   266  ASP266      0.3671
    228  OD1      -10.8190   38.0850   30.1300 O.co2 266  ASP266     -0.2456
    229  OD2      -12.7810   37.2440   30.6050 O.co2 266  ASP266     -0.2456
    230  N         -6.2410   40.9200   32.4110 N.3   270  ASN270     -0.1240
    231  CA        -6.7460   42.2090   31.9520 C.3   270  ASN270      0.1653
    232  C         -6.0840   43.3610   32.7170 C.2   270  ASN270      0.2266
    233  O         -5.5800   43.1820   33.8300 O.2   270  ASN270     -0.2867
    234  CB        -8.2670   42.2570   32.1040 C.3   270  ASN270      0.1155
    235  CG        -8.9900   41.5430   30.9660 C.2   270  ASN270      0.2627
    236  OD1       -8.9110   41.9590   29.8060 O.2   270  ASN270     -0.2716
    237  ND2       -9.6960   40.4710   31.2920 N.am  270  ASN270     -0.0877
    238  N         -7.1770   45.5160   34.4630 N.3   272  ASP272     -0.1239
    239  CA        -7.7740   45.7440   35.7790 C.3   272  ASP272      0.1674
    240  C         -6.9800   45.0120   36.8620 C.2   272  ASP272      0.2266
    241  O         -6.9510   45.4390   38.0130 O.2   272  ASP272     -0.2867
    242  CB        -9.2180   45.2330   35.8160 C.3   272  ASP272      0.1410
    243  CG       -10.1160   45.9500   34.8380 C.2   272  ASP272      0.3668
    244  OD1      -10.1670   47.1980   34.8920 O.co2 272  ASP272     -0.2456
    245  OD2      -10.7740   45.2650   34.0230 O.co2 272  ASP272     -0.2456
@<TRIPOS>BOND
     1    68    67    2
     2    83    81   am
     3    82    81    2
     4    67    66    1
     5    81    80    1
     6    76    77    1
     7    80    77    1
     8    66    65    1
     9    66    69    1
    10    77    78    1
    11    74    72   ar
    12    74    75   ar
    13    42    41    2
    14    72    70   ar
    15    75    73   ar
    16    70    69    1
    17    70    71   ar
    18    41    40    1
    19    78    79    2
    20    73    71   ar
    21    57    58    2
    22    57    56    1
    23   126   125    2
    24   129   130    2
    25   129   128    1
    26    46    45    2
    27    56    55    1
    28    56    59    1
    29    43    40    1
    30    43    44    1
    31    40    39    1
    32   128   127    1
    33   128   131    1
    34   125   127   am
    35   125   124    1
    36    51    50    2
    37    45    44    1
    38    45    47   am
    39    59    60    1
    40    39    29   am
    41   131   132    1
    42   124   123    1
    43    50    49    1
    44   134   132    1
    45    60    62   ar
    46    60    61   ar
    47    62    64   ar
    48    84    85    1
    49   132   133    1
    50    29    30    2
    51    29    28    1
    52    52    53    1
    53    52    49    1
    54    52    54    1
    55   123   117   am
    56    49    48    1
    57    61    63   ar
    58    64    63   ar
    59   118   117    2
    60    85    88    1
    61    85    86    1
    62    27    28    1
    63    28    31    1
    64   117   116    1
    65   107   108    1
    66   110   109    2
    67    88    89    1
    68    26    25    1
    69    24    25   ar
    70    24    22   ar
    71    86    87    2
    72    18    17    2
    73   171   170    2
    74   109   108    1
    75   109   115   am
    76    17    16    1
    77    31    32    1
    78    25    23   ar
    79    22    20   ar
    80   116   115    1
    81   116   119    1
    82   108   111    1
    83    92    90   am
    84    89    90    1
    85   170   169    1
    86   119   120    1
    87   111   112    1
    88    90    91    2
    89    32    33   ar
    90    32    34   ar
    91   153   151   ar
    92    33    35   ar
    93    23    21   ar
    94    20    21   ar
    95    20    19    1
    96    16    19    1
    97    16    15    1
    98   172   169    1
    99   172   173    1
   100     4     3    2
   101   149   148    2
   102   150   151    1
   103   150   147    1
   104   112   114    1
   105   112   113    1
   106   169   168    1
   107    15     3   am
   108   151   152   ar
   109    34    36   ar
   110     3     2    1
   111    35    37   ar
   112   120   121    1
   113   120   122    1
   114   157   156    2
   115   158   155    1
   116     1     2    1
   117   146   147    1
   118   138   137    2
   119   148   147    1
   120   148   154   am
   121     2     5    1
   122   173   174   ar
   123   173   175   ar
   124    36    37   ar
   125    37    38    1
   126   168   161   am
   127   174   176   ar
   128   156   155    1
   129   135   136    1
   130   137   136    1
   131   155   154    1
   132   175   177   ar
   133   161   162    2
   134   161   160    1
   135     5     6    1
   136   176   177   ar
   137   144   143    1
   138   136   139    1
   139    11     8   ar
   140    11    13   ar
   141   159   160    1
   142     6     8   ar
   143     6     7   ar
   144   139   140    1
   145     8    10   ar
   146    13    14   ar
   147   141   140    1
   148   141   142    1
   149   160   163    1
   150     7     9   ar
   151   143   142    2
   152   143   145    1
   153   104   106   ar
   154   104   102   ar
   155    10     9   ar
   156    10    12   ar
   157    14    12   ar
   158   106   105   ar
   159   185   184   ar
   160   102   101   ar
   161   102   100   ar
   162   101    99   ar
   163   163   164    1
   164   221   219   ar
   165   221   220   ar
   166   105   103   ar
   167   178   179    1
   168   164   165    1
   169   181   180    2
   170    99    98   ar
   171   219   217   ar
   172   100   103   ar
   173   100    98   ar
   174   184   186   ar
   175   184   183    1
   176   220   218   ar
   177   182   179    1
   178   182   183    1
   179    93    94    1
   180   236   235    2
   181    98    97    1
   182   228   227   ar
   183    94    97    1
   184    94    95    1
   185   179   180    1
   186   166   165    1
   187   166   167    1
   188   217   218   ar
   189   217   216    1
   190   229   227   ar
   191   227   226    1
   192   235   237   am
   193   235   234    1
   194    95    96    2
   195   216   213    1
   196   231   234    1
   197   231   230    1
   198   231   232    1
   199   226   223    1
   200   232   233    2
   201   223   222    1
   202   223   224    1
   203   222   214   am
   204   214   215    2
   205   214   213    1
   206   187   188    1
   207   213   212    1
   208   193   192    1
   209   192   191    1
   210   192   194    1
   211   211   209   ar
   212   191   188    1
   213   225   224    2
   214   190   189    2
   215   245   243   ar
   216   210   209   ar
   217   188   189    1
   218   209   208    1
   219   238   239    1
   220   189   195   am
   221   243   244   ar
   222   243   242    1
   223   208   205    1
   224   239   242    1
   225   239   240    1
   226   195   196    1
   227   207   206    2
   228   204   205    1
   229   204   197   am
   230   196   197    1
   231   196   199    1
   232   206   205    1
   233   197   198    2
   234   240   241    2
   235   200   199    1
   236   200   201    1
   237   201   203   am
   238   201   202    2
