@<TRIPOS>MOLECULE
tmp/1uamA00.pdb
 163 165 0 0 0
SMALL
GASTEIGER

@<TRIPOS>ATOM
      1  N        -17.1120   64.5560 -133.4730 N.3    88  TYR88      -0.1227
      2  CA       -18.1360   65.5670 -133.6460 C.3    88  TYR88       0.1736
      3  C        -19.0680   65.4830 -132.4310 C.2    88  TYR88       0.2595
      4  O        -19.5880   64.4100 -132.1070 O.2    88  TYR88      -0.2718
      5  CB       -18.9310   65.3350 -134.9390 C.3    88  TYR88       0.0548
      6  CG       -20.0940   66.2920 -135.1060 C.ar   88  TYR88      -0.0200
      7  CD1      -21.3600   65.8300 -135.4780 C.ar   88  TYR88      -0.0009
      8  CD2      -19.9380   67.6590 -134.8640 C.ar   88  TYR88      -0.0009
      9  CE1      -22.4420   66.7070 -135.5990 C.ar   88  TYR88       0.0417
     10  CE2      -21.0110   68.5400 -134.9830 C.ar   88  TYR88       0.0417
     11  CZ       -22.2580   68.0600 -135.3480 C.ar   88  TYR88       0.1957
     12  OH       -23.3200   68.9330 -135.4480 O.3    88  TYR88      -0.2866
     13  N        -19.2370   66.6060 -131.7350 N.am   89  LEU89      -0.1966
     14  CA       -20.1250   66.6570 -130.5730 C.3    89  LEU89       0.1728
     15  C        -21.5430   66.7380 -131.1140 C.2    89  LEU89       0.2617
     16  O        -21.8770   67.6620 -131.8730 O.2    89  LEU89      -0.2715
     17  CB       -19.8360   67.8910 -129.7020 C.3    89  LEU89       0.0311
     18  CG       -18.6160   67.8970 -128.7610 C.3    89  LEU89       0.0022
     19  CD1      -18.7020   66.7110 -127.8180 C.3    89  LEU89       0.0001
     20  CD2      -17.3080   67.8480 -129.5590 C.3    89  LEU89       0.0001
     21  N        -22.3740   65.7700 -130.7450 N.am   90  SER90      -0.1936
     22  CA       -23.7480   65.7440 -131.2320 C.3    90  SER90       0.2040
     23  C        -24.6820   64.9790 -130.3000 C.2    90  SER90       0.2485
     24  O        -24.3070   63.9560 -129.7320 O.2    90  SER90      -0.2729
     25  CB       -23.7890   65.1120 -132.6320 C.3    90  SER90       0.2129
     26  OG       -25.1210   64.8250 -133.0330 O.3    90  SER90      -0.2179
     27  N        -25.9220   65.4670 -130.1430 N.am   91  PRO91      -0.2715
     28  CA       -26.8810   64.7890 -129.2670 C.3    91  PRO91       0.1536
     29  C        -27.3350   63.4530 -129.8710 C.2    91  PRO91       0.2598
     30  O        -28.0790   62.6950 -129.2480 O.2    91  PRO91      -0.2715
     31  CB       -28.0120   65.8060 -129.1500 C.3    91  PRO91       0.0310
     32  CG       -27.9950   66.4770 -130.5150 C.3    91  PRO91       0.0237
     33  CD       -26.5180   66.6640 -130.7730 C.3    91  PRO91       0.0939
     34  N        -26.8770   63.1700 -131.0870 N.am   92  GLN92      -0.1978
     35  CA       -27.2300   61.9280 -131.7700 C.3    92  GLN92       0.1601
     36  C        -26.0720   60.9330 -131.7550 C.2    92  GLN92       0.2287
     37  O        -26.1590   59.8600 -132.3580 O.2    92  GLN92      -0.2864
     38  CB       -27.6210   62.2110 -133.2220 C.3    92  GLN92       0.0394
     39  CG       -28.8420   63.0880 -133.3950 C.3    92  GLN92       0.0908
     40  CD       -29.2820   63.1540 -134.8410 C.2    92  GLN92       0.2608
     41  OE1      -29.4830   62.1230 -135.4780 O.2    92  GLN92      -0.2717
     42  NE2      -29.4350   64.3650 -135.3680 N.am   92  GLN92      -0.0878
     43  N        -20.4780   72.1480 -133.1260 N.3   115  GLY115     -0.1210
     44  CA       -21.4750   72.6940 -134.0240 C.3   115  GLY115      0.1956
     45  C        -22.2480   73.8420 -133.3970 C.2   115  GLY115      0.2612
     46  O        -22.1700   74.0980 -132.1910 O.2   115  GLY115     -0.2717
     47  N        -22.9790   74.5580 -134.2380 N.am  116  ARG116     -0.1965
     48  CA       -23.8030   75.6790 -133.8020 C.3   116  ARG116      0.1729
     49  C        -25.0330   75.6530 -134.6860 C.2   116  ARG116      0.2616
     50  O        -25.0770   74.8960 -135.6520 O.2   116  ARG116     -0.2715
     51  CB       -23.0470   77.0090 -133.9600 C.3   116  ARG116      0.0348
     52  CG       -22.1240   77.3320 -132.7680 C.3   116  ARG116      0.0492
     53  CD       -22.9630   77.7740 -131.5740 C.3   116  ARG116      0.2205
     54  NE       -22.2680   77.6480 -130.3040 N.pl3 116  ARG116     -0.0865
     55  CZ       -22.5880   78.3280 -129.2080 C.cat 116  ARG116      0.5346
     56  NH1      -23.5910   79.1920 -129.2310 N.pl3 116  ARG116      0.1354
     57  NH2      -21.9130   78.1350 -128.0800 N.pl3 116  ARG116      0.1354
     58  N        -26.0360   76.4500 -134.3480 N.am  117  TYR117     -0.1960
     59  CA       -27.2470   76.4900 -135.1500 C.3   117  TYR117      0.1771
     60  C        -27.8630   75.0920 -135.2060 C.2   117  TYR117      0.2619
     61  O        -27.8750   74.3720 -134.2080 O.2   117  TYR117     -0.2715
     62  CB       -26.9100   76.9790 -136.5660 C.3   117  TYR117      0.0574
     63  CG       -25.9070   78.1100 -136.5810 C.ar  117  TYR117     -0.0198
     64  CD1      -24.8380   78.1040 -137.4770 C.ar  117  TYR117     -0.0009
     65  CD2      -26.0100   79.1760 -135.6860 C.ar  117  TYR117     -0.0009
     66  CE1      -23.8960   79.1230 -137.4860 C.ar  117  TYR117      0.0417
     67  CE2      -25.0650   80.2060 -135.6860 C.ar  117  TYR117      0.0417
     68  CZ       -24.0120   80.1660 -136.5940 C.ar  117  TYR117      0.1957
     69  OH       -23.0720   81.1670 -136.6060 O.3   117  TYR117     -0.2866
     70  N        -28.3550   74.7040 -136.3810 N.am  118  GLU118     -0.1963
     71  CA       -28.9900   73.4030 -136.5530 C.3   118  GLU118      0.1733
     72  C        -27.9930   72.2650 -136.6340 C.2   118  GLU118      0.2616
     73  O        -28.3680   71.1000 -136.5150 O.2   118  GLU118     -0.2715
     74  CB       -29.8540   73.3940 -137.8160 C.3   118  GLU118      0.0429
     75  CG       -31.2880   72.9900 -137.5620 C.3   118  GLU118      0.1163
     76  CD       -31.9800   73.9420 -136.6050 C.2   118  GLU118      0.3649
     77  OE1      -32.0170   75.1550 -136.9150 O.co2 118  GLU118     -0.2457
     78  OE2      -32.4770   73.4850 -135.5520 O.co2 118  GLU118     -0.2457
     79  N        -26.7270   72.6020 -136.8470 N.am  119  GLY119     -0.1955
     80  CA       -25.7010   71.5810 -136.9440 C.3   119  GLY119      0.1869
     81  C        -24.8350   71.7400 -138.1810 C.2   119  GLY119      0.2309
     82  O        -24.6110   72.8580 -138.6670 O.2   119  GLY119     -0.2863
     83  N        -20.2640   61.9130 -130.5510 N.3   133  TRP133     -0.1227
     84  CA       -20.5000   61.7470 -129.1200 C.3   133  TRP133      0.1737
     85  C        -21.4720   62.7660 -128.5550 C.2   133  TRP133      0.2596
     86  O        -21.4570   63.9350 -128.9330 O.2   133  TRP133     -0.2718
     87  CB       -19.1920   61.8500 -128.3250 C.3   133  TRP133      0.0564
     88  CG       -18.2420   60.7130 -128.5120 C.ar  133  TRP133      0.0003
     89  CD1      -17.3990   60.5070 -129.5700 C.ar  133  TRP133      0.0946
     90  CD2      -18.0250   59.6260 -127.6060 C.ar  133  TRP133      0.0152
     91  NE1      -16.6670   59.3590 -129.3730 N.ar  133  TRP133     -0.2442
     92  CE2      -17.0320   58.7990 -128.1770 C.ar  133  TRP133      0.0810
     93  CE3      -18.5750   59.2700 -126.3660 C.ar  133  TRP133      0.0012
     94  CZ2      -16.5760   57.6350 -127.5490 C.ar  133  TRP133      0.0191
     95  CZ3      -18.1250   58.1150 -125.7420 C.ar  133  TRP133      0.0001
     96  CH2      -17.1340   57.3100 -126.3350 C.ar  133  TRP133      0.0015
     97  N        -22.3090   62.3040 -127.6340 N.am  134  SER134     -0.1938
     98  CA       -23.2870   63.1460 -126.9630 C.3   134  SER134      0.2055
     99  C        -22.9980   63.1230 -125.4650 C.2   134  SER134      0.2643
    100  O        -22.5110   62.1230 -124.9450 O.2   134  SER134     -0.2714
    101  CB       -24.6930   62.6130 -127.2140 C.3   134  SER134      0.2130
    102  OG       -25.6470   63.2840 -126.4170 O.3   134  SER134     -0.2179
    103  N        -23.2760   64.2160 -124.7680 N.am  135  ILE135     -0.1963
    104  CA       -23.0570   64.2270 -123.3250 C.3   135  ILE135      0.1727
    105  C        -24.3540   63.9050 -122.6080 C.2   135  ILE135      0.2616
    106  O        -24.3800   63.8370 -121.3920 O.2   135  ILE135     -0.2715
    107  CB       -22.5410   65.5880 -122.7920 C.3   135  ILE135      0.0290
    108  CG1      -23.4280   66.7290 -123.2940 C.3   135  ILE135      0.0022
    109  CG2      -21.0810   65.7850 -123.1850 C.3   135  ILE135      0.0023
    110  CD1      -23.2930   68.0040 -122.4550 C.3   135  ILE135      0.0001
    111  N        -25.4290   63.6990 -123.3650 N.am  136  GLY136     -0.1955
    112  CA       -26.7110   63.3850 -122.7490 C.3   136  GLY136      0.1869
    113  C        -27.8910   63.6220 -123.6710 C.2   136  GLY136      0.2309
    114  O        -27.7530   64.2930 -124.6990 O.2   136  GLY136     -0.2863
    115  N        -30.3450   65.6240 -124.3500 N.3   138  TYR138     -0.1227
    116  CA       -30.8940   66.9590 -124.2300 C.3   138  TYR138      0.1736
    117  C        -30.1550   67.7960 -125.2580 C.2   138  TYR138      0.2595
    118  O        -29.0680   67.4190 -125.6980 O.2   138  TYR138     -0.2718
    119  CB       -30.6980   67.4960 -122.7980 C.3   138  TYR138      0.0548
    120  CG       -29.3500   67.1800 -122.1800 C.ar  138  TYR138     -0.0200
    121  CD1      -28.2380   67.9600 -122.4650 C.ar  138  TYR138     -0.0009
    122  CD2      -29.1940   66.1010 -121.2970 C.ar  138  TYR138     -0.0009
    123  CE1      -26.9980   67.6930 -121.8910 C.ar  138  TYR138      0.0417
    124  CE2      -27.9420   65.8210 -120.7080 C.ar  138  TYR138      0.0417
    125  CZ       -26.8510   66.6280 -121.0130 C.ar  138  TYR138      0.1957
    126  OH       -25.6150   66.4030 -120.4490 O.3   138  TYR138     -0.2866
    127  N        -30.7440   68.9190 -125.6510 N.am  139  VAL139     -0.1966
    128  CA       -30.1370   69.7750 -126.6650 C.3   139  VAL139      0.1727
    129  C        -29.6180   71.1040 -126.1530 C.2   139  VAL139      0.2616
    130  O        -30.3370   71.8410 -125.4760 O.2   139  VAL139     -0.2715
    131  CB       -31.1360   70.0570 -127.7940 C.3   139  VAL139      0.0290
    132  CG1      -30.4900   70.9470 -128.8610 C.3   139  VAL139      0.0023
    133  CG2      -31.6140   68.7370 -128.3870 C.3   139  VAL139      0.0023
    134  N        -28.3680   71.3990 -126.4990 N.am  140  LEU140     -0.1963
    135  CA       -27.7060   72.6430 -126.1130 C.3   140  LEU140      0.1728
    136  C        -27.5440   73.5320 -127.3550 C.2   140  LEU140      0.2617
    137  O        -27.7760   73.0900 -128.4830 O.2   140  LEU140     -0.2715
    138  CB       -26.3290   72.3480 -125.4990 C.3   140  LEU140      0.0311
    139  CG       -26.3100   71.4060 -124.2830 C.3   140  LEU140      0.0022
    140  CD1      -24.8940   71.2890 -123.7260 C.3   140  LEU140      0.0001
    141  CD2      -27.2520   71.9350 -123.2040 C.3   140  LEU140      0.0001
    142  N        -27.1320   74.7780 -127.1360 N.am  141  THR141     -0.1937
    143  CA       -26.9600   75.7510 -128.2140 C.3   141  THR141      0.2028
    144  C        -25.7250   75.5240 -129.0830 C.2   141  THR141      0.2643
    145  O        -25.6560   76.0220 -130.2010 O.2   141  THR141     -0.2714
    146  CB       -26.9050   77.1930 -127.6400 C.3   141  THR141      0.1808
    147  OG1      -25.7160   77.3610 -126.8560 O.3   141  THR141     -0.2208
    148  CG2      -28.1140   77.4550 -126.7470 C.3   141  THR141      0.0379
    149  N        -24.7560   74.7720 -128.5740 N.am  142  GLY142     -0.1939
    150  CA       -23.5470   74.5140 -129.3330 C.3   142  GLY142      0.2014
    151  C        -22.7580   73.3450 -128.7760 C.2   142  GLY142      0.2639
    152  O        -23.1090   72.7980 -127.7230 O.2   142  GLY142     -0.2714
    153  N        -21.6890   72.9640 -129.4760 N.am  143  GLY143     -0.1954
    154  CA       -20.8680   71.8470 -129.0330 C.3   143  GLY143      0.1869
    155  C        -19.7680   72.2150 -128.0490 C.2   143  GLY143      0.2309
    156  O        -19.0690   71.3450 -127.5360 O.2   143  GLY143     -0.2863
    157  N        -20.3550   70.7720 -124.4000 N.3   146  PRO146     -0.2116
    158  CA       -20.1580   69.3170 -124.4700 C.3   146  PRO146      0.1372
    159  C        -18.6850   68.9650 -124.6950 C.2   146  PRO146      0.2244
    160  O        -18.1730   67.9910 -124.1440 O.2   146  PRO146     -0.2868
    161  CB       -21.0280   68.9020 -125.6570 C.3   146  PRO146      0.0268
    162  CG       -22.1320   69.9390 -125.6560 C.3   146  PRO146      0.0207
    163  CD       -21.3680   71.2160 -125.3780 C.3   146  PRO146      0.0892
@<TRIPOS>BOND
     1    82    81    2
     2    81    80    1
     3    74    75    1
     4    74    71    1
     5    75    76    1
     6    66    64   ar
     7    66    68   ar
     8    64    63   ar
     9    80    79    1
    10    77    76   ar
    11    79    72   am
    12    72    71    1
    13    72    73    2
    14    69    68    1
    15    76    78   ar
    16    68    67   ar
    17    63    62    1
    18    63    65   ar
    19    62    59    1
    20    71    70    1
    21    70    60   am
    22    67    65   ar
    23    50    49    2
    24     9     7   ar
    25     9    11   ar
    26     7     6   ar
    27    41    40    2
    28    12    11    1
    29    42    40   am
    30    11    10   ar
    31    60    59    1
    32    60    61    2
    33    59    58    1
    34     6     5    1
    35     6     8   ar
    36    10     8   ar
    37     5     2    1
    38    40    39    1
    39    49    58   am
    40    49    48    1
    41    47    48    1
    42    47    45   am
    43    44    45    1
    44    44    43    1
    45    51    48    1
    46    51    52    1
    47     2     1    1
    48     2     3    1
    49    45    46    2
    50    39    38    1
    51    38    35    1
    52    26    25    1
    53    52    53    1
    54    25    22    1
    55     3     4    2
    56     3    13   am
    57    37    36    2
    58    16    15    2
    59    35    36    1
    60    35    34    1
    61    13    14    1
    62    53    54    1
    63    22    21    1
    64    22    23    1
    65    15    21   am
    66    15    14    1
    67    34    29   am
    68    33    32    1
    69    33    27    1
    70    14    17    1
    71    83    84    1
    72    32    31    1
    73    54    55    2
    74    23    27   am
    75    23    24    2
    76   145   144    2
    77    27    28    1
    78    29    28    1
    79    29    30    2
    80    17    18    1
    81    89    91   ar
    82    89    88   ar
    83    20    18    1
    84   153   154    1
    85   153   151   am
    86    91    92   ar
    87   150   151    1
    88   150   149    1
    89    28    31    1
    90    56    55    1
    91    55    57    1
    92    84    85    1
    93    84    87    1
    94   144   149   am
    95   144   143    1
    96   154   155    1
    97    86    85    2
    98   132   131    1
    99   151   152    2
   100    18    19    1
   101    85    97   am
   102    88    87    1
   103    88    90   ar
   104   137   136    2
   105   133   131    1
   106   143   146    1
   107   143   142    1
   108    92    90   ar
   109    92    94   ar
   110   155   156    2
   111   131   128    1
   112   146   147    1
   113   146   148    1
   114    97    98    1
   115    90    93   ar
   116    94    96   ar
   117   136   142   am
   118   136   135    1
   119   101    98    1
   120   101   102    1
   121    98    99    1
   122   128   129    1
   123   128   127    1
   124   134   129   am
   125   134   135    1
   126    93    95   ar
   127    96    95   ar
   128   129   130    2
   129   135   138    1
   130   118   117    2
   131   161   162    1
   132   161   158    1
   133   162   163    1
   134   127   117   am
   135   138   139    1
   136    99   100    2
   137    99   103   am
   138   163   157    1
   139   117   116    1
   140   103   104    1
   141   114   113    2
   142   159   158    1
   143   159   160    2
   144   158   157    1
   145   115   116    1
   146   139   140    1
   147   139   141    1
   148   116   119    1
   149   113   112    1
   150   111   112    1
   151   111   105   am
   152   104   107    1
   153   104   105    1
   154   108   107    1
   155   108   110    1
   156   109   107    1
   157   119   120    1
   158   105   106    2
   159   121   120   ar
   160   121   123   ar
   161   120   122   ar
   162   123   125   ar
   163   122   124   ar
   164   125   124   ar
   165   125   126    1
