@<TRIPOS>MOLECULE
tmp/1uasA00.pdb
 126 120 0 0 0
SMALL
GASTEIGER

@<TRIPOS>ATOM
      1  N         10.0360   12.8850   21.4600 N.3    16  TRP16      -0.1241
      2  CA        10.6350   13.1890   22.7550 C.3    16  TRP16       0.1605
      3  C         11.7960   14.1670   22.9060 C.2    16  TRP16       0.2264
      4  O         11.6970   15.1260   23.6770 O.2    16  TRP16      -0.2867
      5  CB        11.0130   11.8880   23.4690 C.3    16  TRP16       0.0550
      6  CG        11.3560   12.1250   24.9060 C.ar   16  TRP16       0.0003
      7  CD1       12.6010   12.1290   25.4680 C.ar   16  TRP16       0.0946
      8  CD2       10.4430   12.4850   25.9480 C.ar   16  TRP16       0.0152
      9  NE1       12.5200   12.4740   26.7960 N.ar   16  TRP16      -0.2442
     10  CE2       11.2060   12.6980   27.1170 C.ar   16  TRP16       0.0810
     11  CE3        9.0520   12.6520   26.0050 C.ar   16  TRP16       0.0012
     12  CZ2       10.6240   13.0710   28.3340 C.ar   16  TRP16       0.0191
     13  CZ3        8.4740   13.0240   27.2140 C.ar   16  TRP16       0.0001
     14  CH2        9.2610   13.2280   28.3610 C.ar   16  TRP16       0.0015
     15  N          5.8770    9.6790   21.2930 N.3    51  ASP51      -0.1225
     16  CA         6.4500    9.1940   22.5420 C.3    51  ASP51       0.1805
     17  C          5.4280    9.3700   23.6700 C.2    51  ASP51       0.2597
     18  O          4.2280    9.2150   23.4560 O.2    51  ASP51      -0.2718
     19  CB         7.7520    9.9380   22.8710 C.3    51  ASP51       0.1424
     20  CG         8.7000    9.1030   23.7220 C.2    51  ASP51       0.3668
     21  OD1        9.3880    8.2150   23.1660 O.co2  51  ASP51      -0.2456
     22  OD2        8.7490    9.3220   24.9490 O.co2  51  ASP51      -0.2456
     23  N          5.9010    9.7060   24.8650 N.am   52  ASP52      -0.1974
     24  CA         5.0270    9.8660   26.0280 C.3    52  ASP52       0.1709
     25  C          4.0320   11.0240   25.8910 C.2    52  ASP52       0.2293
     26  O          4.2130   11.9260   25.0680 O.2    52  ASP52      -0.2864
     27  CB         5.9000   10.0910   27.2740 C.3    52  ASP52       0.1436
     28  CG         5.2150    9.6840   28.5770 C.2    52  ASP52       0.3671
     29  OD1        3.9820    9.4870   28.6060 O.co2  52  ASP52      -0.2456
     30  OD2        5.9340    9.5710   29.5930 O.co2  52  ASP52      -0.2456
     31  N          3.6900    4.8220   22.0280 N.3    93  TYR93      -0.1241
     32  CA         4.4710    4.5680   23.2260 C.3    93  TYR93       0.1605
     33  C          3.6350    4.1190   24.4170 C.2    93  TYR93       0.2264
     34  O          2.5310    4.6110   24.6360 O.2    93  TYR93      -0.2867
     35  CB         5.2490    5.8610   23.5540 C.3    93  TYR93       0.0534
     36  CG         5.8350    5.9890   24.9490 C.ar   93  TYR93      -0.0201
     37  CD1        5.0310    6.3300   26.0380 C.ar   93  TYR93      -0.0009
     38  CD2        7.2020    5.8110   25.1720 C.ar   93  TYR93      -0.0009
     39  CE1        5.5730    6.4920   27.3110 C.ar   93  TYR93       0.0417
     40  CE2        7.7540    5.9710   26.4430 C.ar   93  TYR93       0.0417
     41  CZ         6.9330    6.3110   27.5080 C.ar   93  TYR93       0.1957
     42  OH         7.4690    6.4650   28.7690 O.3    93  TYR93      -0.2866
     43  N          6.4340    6.9610   32.1410 N.3   101  CYS101     -0.1221
     44  CA         7.4130    7.6730   32.9470 C.3   101  CYS101      0.1808
     45  C          7.0370    9.1050   33.3260 C.2   101  CYS101      0.2601
     46  O          7.5370    9.6360   34.3160 O.2   101  CYS101     -0.2717
     47  CB         8.7670    7.6420   32.2480 C.3   101  CYS101      0.0970
     48  SG         9.5340    5.9880   32.2290 S.3   101  CYS101     -0.0800
     49  N          6.1520    9.7240   32.5540 N.am  102  SER102     -0.1952
     50  CA         5.7200   11.0870   32.8450 C.3   102  SER102      0.1924
     51  C          4.6160   11.0820   33.8990 C.2   102  SER102      0.2314
     52  O          4.2920   12.1240   34.4730 O.2   102  SER102     -0.2863
     53  CB         5.1750   11.7500   31.5830 C.3   102  SER102      0.2116
     54  OG         3.9430   11.1560   31.2140 O.3   102  SER102     -0.2180
     55  N          7.1550    1.5940   21.3830 N.3   128  LYS128     -0.1245
     56  CA         8.3110    1.8080   22.2520 C.3   128  LYS128      0.1561
     57  C          7.7080    1.4900   23.6180 C.2   128  LYS128      0.2260
     58  O          6.6730    2.0450   23.9800 O.2   128  LYS128     -0.2867
     59  CB         8.7840    3.2610   22.1920 C.3   128  LYS128      0.0271
     60  CG         9.8720    3.6030   23.2040 C.3   128  LYS128      0.0035
     61  CD        10.3420    5.0400   23.0280 C.3   128  LYS128      0.0206
     62  CE        11.2470    5.4880   24.1690 C.3   128  LYS128      0.1093
     63  NZ        11.7450    6.8750   23.9360 N.3   128  LYS128     -0.1314
     64  N          8.3910    1.4810   27.6090 N.3   130  ASP130     -0.1239
     65  CA         9.1920    1.9620   28.7370 C.3   130  ASP130      0.1674
     66  C          9.1630    1.1130   30.0100 C.2   130  ASP130      0.2266
     67  O          8.3600    0.1890   30.1430 O.2   130  ASP130     -0.2867
     68  CB         8.8110    3.4080   29.0690 C.3   130  ASP130      0.1410
     69  CG        10.0190    4.2700   29.3930 C.2   130  ASP130      0.3668
     70  OD1       11.0270    3.7330   29.9030 O.co2 130  ASP130     -0.2456
     71  OD2        9.9520    5.4940   29.1490 O.co2 130  ASP130     -0.2456
     72  N         12.4750   -0.3800   25.9740 N.3   162  CYS162     -0.1235
     73  CA        13.1170    0.7660   26.5860 C.3   162  CYS162      0.1677
     74  C         13.2260    0.5660   28.0920 C.2   162  CYS162      0.2270
     75  O         12.3880    1.0530   28.8530 O.2   162  CYS162     -0.2867
     76  CB        12.3140    2.0380   26.2830 C.3   162  CYS162      0.0956
     77  SG        13.0110    3.5590   26.9610 S.3   162  CYS162     -0.0801
     78  N         16.3820    0.9720   29.6570 N.3   164  TRP164     -0.1241
     79  CA        17.6600    1.6130   29.9400 C.3   164  TRP164      0.1605
     80  C         18.9070    0.7730   30.1800 C.2   164  TRP164      0.2264
     81  O         19.8000    1.1960   30.9160 O.2   164  TRP164     -0.2867
     82  CB        17.4470    2.5530   31.1320 C.3   164  TRP164      0.0550
     83  CG        16.0570    3.1540   31.1650 C.ar  164  TRP164      0.0003
     84  CD1       15.4540    3.8800   30.1780 C.ar  164  TRP164      0.0946
     85  CD2       15.1060    3.0680   32.2350 C.ar  164  TRP164      0.0152
     86  NE1       14.1870    4.2520   30.5650 N.ar  164  TRP164     -0.2442
     87  CE2       13.9480    3.7670   31.8240 C.ar  164  TRP164      0.0810
     88  CE3       15.1200    2.4690   33.5020 C.ar  164  TRP164      0.0012
     89  CZ2       12.8120    3.8850   32.6360 C.ar  164  TRP164      0.0191
     90  CZ3       13.9900    2.5870   34.3120 C.ar  164  TRP164      0.0001
     91  CH2       12.8520    3.2910   33.8720 C.ar  164  TRP164      0.0015
     92  N         16.9960   -0.4080   24.3190 N.3   181  ARG181     -0.1245
     93  CA        17.8230    0.6830   24.8180 C.3   181  ARG181      0.1563
     94  C         18.9040    0.0500   25.6970 C.2   181  ARG181      0.2260
     95  O         18.6110   -0.7720   26.5680 O.2   181  ARG181     -0.2867
     96  CB        16.9660    1.6540   25.6340 C.3   181  ARG181      0.0307
     97  CG        16.0940    2.5800   24.7820 C.3   181  ARG181      0.0489
     98  CD        16.8890    3.8070   24.3380 C.3   181  ARG181      0.2205
     99  NE        17.3970    4.4930   25.5200 N.pl3 181  ARG181     -0.0865
    100  CZ        16.6740    5.2940   26.2970 C.cat 181  ARG181      0.5346
    101  NH1       15.4030    5.5490   26.0140 N.pl3 181  ARG181      0.1354
    102  NH2       17.2040    5.7750   27.4120 N.pl3 181  ARG181      0.1354
    103  N         18.8620    7.6790   29.3670 N.3   185  ASP185     -0.1239
    104  CA        18.5100    8.6940   28.3740 C.3   185  ASP185      0.1674
    105  C         19.6420    9.5600   27.8470 C.2   185  ASP185      0.2266
    106  O         20.5040   10.0110   28.6000 O.2   185  ASP185     -0.2867
    107  CB        17.4430    9.6330   28.9410 C.3   185  ASP185      0.1410
    108  CG        16.1270    8.9420   29.1990 C.2   185  ASP185      0.3668
    109  OD1       16.0640    7.6970   29.1160 O.co2 185  ASP185     -0.2456
    110  OD2       15.1490    9.6580   29.4980 O.co2 185  ASP185     -0.2456
    111  N         19.8890    5.2150   21.8830 N.3   216  ASP216     -0.1225
    112  CA        18.9040    6.2980   21.9710 C.3   216  ASP216      0.1805
    113  C         18.7360    7.2140   20.7580 C.2   216  ASP216      0.2597
    114  O         19.5120    7.1810   19.8020 O.2   216  ASP216     -0.2718
    115  CB        19.1280    7.1420   23.2350 C.3   216  ASP216      0.1424
    116  CG        17.8180    7.5290   23.9210 C.2   216  ASP216      0.3668
    117  OD1       16.7440    7.3840   23.2980 O.co2 216  ASP216     -0.2456
    118  OD2       17.8590    7.9880   25.0830 O.co2 216  ASP216     -0.2456
    119  N         17.6940    8.0350   20.8320 N.am  217  MET217     -0.1979
    120  CA        17.2980    8.9550   19.7720 C.3   217  MET217      0.1605
    121  C         18.2990   10.0550   19.4390 C.2   217  MET217      0.2287
    122  O         18.9260   10.6420   20.3210 O.2   217  MET217     -0.2864
    123  CB        15.9380    9.5480   20.1410 C.3   217  MET217      0.0413
    124  CG        14.9110    8.4550   20.4580 C.3   217  MET217      0.0598
    125  SD        13.4090    8.9980   21.2890 S.3   217  MET217     -0.1393
    126  CE        14.0650    9.4650   22.8990 C.3   217  MET217      0.0692
@<TRIPOS>BOND
     1   121   120    1
     2   121   122    2
     3   120   123    1
     4   120   119    1
     5   114   113    2
     6   123   124    1
     7   124   125    1
     8   113   119   am
     9   113   112    1
    10   125   126    1
    11    15    16    1
    12    55    56    1
    13     1     2    1
    14   111   112    1
    15   112   115    1
    16    31    32    1
    17    59    56    1
    18    59    60    1
    19    56    57    1
    20    16    19    1
    21    16    17    1
    22     2     3    1
    23     2     5    1
    24    19    20    1
    25     3     4    2
    26    61    60    1
    27    61    62    1
    28    21    20   ar
    29    32    35    1
    30    32    33    1
    31   115   116    1
    32   117   116   ar
    33    18    17    2
    34     5     6    1
    35    35    36    1
    36    57    58    2
    37    17    23   am
    38    20    22   ar
    39   116   118   ar
    40    63    62    1
    41    92    93    1
    42    98    97    1
    43    98    99    1
    44    33    34    2
    45    97    96    1
    46    93    96    1
    47    93    94    1
    48    23    24    1
    49     6     7   ar
    50     6     8   ar
    51    36    38   ar
    52    36    37   ar
    53    26    25    2
    54    38    40   ar
    55     7     9   ar
    56    99   100    2
    57    94    95    2
    58    25    24    1
    59     8    11   ar
    60     8    10   ar
    61    72    73    1
    62    11    13   ar
    63   101   100    1
    64    24    27    1
    65    37    39   ar
    66    76    73    1
    67    76    77    1
    68   100   102    1
    69    40    41   ar
    70    73    74    1
    71     9    10   ar
    72    10    12   ar
    73    13    14   ar
    74    27    28    1
    75    39    41   ar
    76    41    42    1
    77    64    65    1
    78   105   104    1
    79   105   106    2
    80    74    75    2
    81    12    14   ar
    82   104   107    1
    83   104   103    1
    84    28    29   ar
    85    28    30   ar
    86    65    68    1
    87    65    66    1
    88   107   108    1
    89    68    69    1
    90   109   108   ar
    91    71    69   ar
    92   108   110   ar
    93    69    70   ar
    94    78    79    1
    95    79    80    1
    96    79    82    1
    97    66    67    2
    98    84    86   ar
    99    84    83   ar
   100    80    81    2
   101    86    87   ar
   102    82    83    1
   103    83    85   ar
   104    54    53    1
   105    53    50    1
   106    87    85   ar
   107    87    89   ar
   108    43    44    1
   109    48    47    1
   110    85    88   ar
   111    47    44    1
   112    49    50    1
   113    49    45   am
   114    89    91   ar
   115    50    51    1
   116    44    45    1
   117    45    46    2
   118    88    90   ar
   119    91    90   ar
   120    51    52    2
