@<TRIPOS>MOLECULE
tmp/1uayA00.pdb
 123 115 0 0 0
SMALL
GASTEIGER

@<TRIPOS>ATOM
      1  N         27.0060    9.1790    3.4870 N.3     8  GLY8       -0.1225
      2  CA        27.0200    7.7850    3.9010 C.3     8  GLY8        0.1811
      3  C         25.6060    7.2600    4.0930 C.2     8  GLY8        0.2280
      4  O         25.3950    6.2190    4.7210 O.2     8  GLY8       -0.2866
      5  N         23.5950    5.6960    2.1960 N.3    10  ALA10      -0.1231
      6  CA        23.1740    4.5030    1.4710 C.3    10  ALA10       0.1694
      7  C         23.0090    3.3090    2.4010 C.2    10  ALA10       0.2593
      8  O         22.2890    2.3670    2.0800 O.2    10  ALA10      -0.2718
      9  CB        24.1770    4.1670    0.3720 C.3    10  ALA10       0.0304
     10  N         23.6630    3.3410    3.5570 N.am   11  SER11      -0.1938
     11  CA        23.5500    2.2150    4.4750 C.3    11  SER11       0.2055
     12  C         23.9000    2.5510    5.9150 C.2    11  SER11       0.2643
     13  O         24.3090    3.6680    6.2310 O.2    11  SER11      -0.2714
     14  CB        24.4510    1.0720    4.0040 C.3    11  SER11       0.2130
     15  OG        25.8140    1.4460    4.0910 O.3    11  SER11      -0.2179
     16  N         23.7170    1.5580    6.7800 N.am   12  GLY12      -0.1954
     17  CA        24.0390    1.6930    8.1890 C.3    12  GLY12       0.1869
     18  C         23.5460    2.9200    8.9310 C.2    12  GLY12       0.2309
     19  O         22.3690    3.2710    8.8790 O.2    12  GLY12      -0.2863
     20  N         24.2580    6.2210    8.5070 N.3    14  GLY14      -0.1225
     21  CA        23.8090    7.3140    7.6620 C.3    14  GLY14       0.1811
     22  C         22.4040    7.0710    7.1450 C.2    14  GLY14       0.2280
     23  O         21.5680    7.9770    7.1190 O.2    14  GLY14      -0.2866
     24  N         24.4110   11.8440    0.1980 N.3    31  LEU31      -0.1231
     25  CA        25.6290   11.8670   -0.6060 C.3    31  LEU31       0.1693
     26  C         26.3240   10.5660   -0.2330 C.2    31  LEU31       0.2592
     27  O         26.6590   10.3390    0.9310 O.2    31  LEU31      -0.2718
     28  CB        26.5350   13.0530   -0.2610 C.3    31  LEU31       0.0284
     29  CG        27.9070   13.0010   -0.9540 C.3    31  LEU31       0.0019
     30  CD1       27.7370   12.9540   -2.4720 C.3    31  LEU31       0.0001
     31  CD2       28.7380   14.2070   -0.5450 C.3    31  LEU31       0.0001
     32  N         26.5260    9.7040   -1.2190 N.am   32  ASP32      -0.1960
     33  CA        27.1510    8.4100   -0.9790 C.3    32  ASP32       0.1840
     34  C         27.6740    7.8990   -2.3150 C.2    32  ASP32       0.2622
     35  O         27.2230    8.3420   -3.3740 O.2    32  ASP32      -0.2715
     36  CB        26.0960    7.4490   -0.4120 C.3    32  ASP32       0.1450
     37  CG        26.6970    6.2110    0.2290 C.2    32  ASP32       0.3671
     38  OD1       27.3450    5.4130   -0.4830 O.co2  32  ASP32      -0.2456
     39  OD2       26.5040    6.0280    1.4520 O.co2  32  ASP32      -0.2456
     40  N         28.6340    6.9820   -2.2670 N.am   33  LEU33      -0.1963
     41  CA        29.1910    6.4150   -3.4890 C.3    33  LEU33       0.1728
     42  C         28.1330    5.5780   -4.1950 C.2    33  LEU33       0.2616
     43  O         28.2090    5.3560   -5.4020 O.2    33  LEU33      -0.2715
     44  CB        30.3890    5.5250   -3.1620 C.3    33  LEU33       0.0311
     45  CG        31.6290    6.2060   -2.5870 C.3    33  LEU33       0.0022
     46  CD1       32.6050    5.1430   -2.1050 C.3    33  LEU33       0.0001
     47  CD2       32.2700    7.0930   -3.6420 C.3    33  LEU33       0.0001
     48  N         27.1470    5.1200   -3.4310 N.am   34  ARG34      -0.1977
     49  CA        26.0780    4.2850   -3.9650 C.3    34  ARG34       0.1597
     50  C         24.7110    4.9150   -3.7540 C.2    34  ARG34       0.2287
     51  O         24.5320    5.7570   -2.8780 O.2    34  ARG34      -0.2864
     52  CB        26.0790    2.9260   -3.2610 C.3    34  ARG34       0.0334
     53  CG        27.4230    2.2250   -3.1970 C.3    34  ARG34       0.0492
     54  CD        27.3360    1.0260   -2.2640 C.3    34  ARG34       0.2205
     55  NE        28.5590    0.2300   -2.2400 N.pl3  34  ARG34      -0.0865
     56  CZ        29.7360    0.6640   -1.8000 C.cat  34  ARG34       0.5346
     57  NH1       29.8660    1.9000   -1.3390 N.pl3  34  ARG34       0.1354
     58  NH2       30.7870   -0.1450   -1.8190 N.pl3  34  ARG34       0.1354
     59  N         28.3690   10.3960   -5.1470 N.3    45  GLY45      -0.1210
     60  CA        29.6310   11.1030   -5.1460 C.3    45  GLY45       0.1956
     61  C         30.5240   10.6990   -3.9920 C.2    45  GLY45       0.2612
     62  O         30.1380    9.8990   -3.1380 O.2    45  GLY45      -0.2717
     63  N         31.7090   11.2970   -3.9640 N.am   46  ASP46      -0.1959
     64  CA        32.7400   11.0130   -2.9720 C.3    46  ASP46       0.1840
     65  C         32.9620   12.2200   -2.0510 C.2    46  ASP46       0.2621
     66  O         33.2280   13.3210   -2.5300 O.2    46  ASP46      -0.2715
     67  CB        34.0300   10.6770   -3.7310 C.3    46  ASP46       0.1450
     68  CG        35.0790   10.0250   -2.8620 C.2    46  ASP46       0.3671
     69  OD1       35.3210   10.5210   -1.7480 O.co2  46  ASP46      -0.2456
     70  OD2       35.6770    9.0200   -3.3050 O.co2  46  ASP46      -0.2456
     71  N         32.8580   12.0120   -0.7360 N.am   47  VAL47      -0.1977
     72  CA        33.0490   13.1020    0.2220 C.3    47  VAL47       0.1596
     73  C         34.4390   13.7290    0.1760 C.2    47  VAL47       0.2287
     74  O         34.6300   14.8400    0.6690 O.2    47  VAL47      -0.2864
     75  CB        32.7670   12.6560    1.6850 C.3    47  VAL47       0.0276
     76  CG1       31.2930   12.3280    1.8560 C.3    47  VAL47       0.0022
     77  CG2       33.6230   11.4550    2.0480 C.3    47  VAL47       0.0022
     78  N         28.2910   10.8420    7.9610 N.3    72  ALA72      -0.1231
     79  CA        28.3340    9.4610    8.4150 C.3    72  ALA72       0.1694
     80  C         29.0500    8.5630    7.4170 C.2    72  ALA72       0.2592
     81  O         29.0140    7.3400    7.5380 O.2    72  ALA72      -0.2718
     82  CB        26.9210    8.9510    8.6650 C.3    72  ALA72       0.0304
     83  N         29.6950    9.1690    6.4270 N.am   73  ALA73      -0.1966
     84  CA        30.4310    8.4060    5.4290 C.3    73  ALA73       0.1728
     85  C         31.7810    8.0540    6.0220 C.2    73  ALA73       0.2617
     86  O         32.4170    8.8800    6.6780 O.2    73  ALA73      -0.2715
     87  CB        30.6250    9.2310    4.1660 C.3    73  ALA73       0.0334
     88  N         32.2230    6.8270    5.7920 N.am   74  GLY74      -0.1940
     89  CA        33.5070    6.4240    6.3200 C.3    74  GLY74       0.2014
     90  C         33.9170    5.0400    5.8810 C.2    74  GLY74       0.2638
     91  O         33.1370    4.3010    5.2710 O.2    74  GLY74      -0.2714
     92  N         35.1610    4.6990    6.1860 N.am   75  VAL75      -0.1977
     93  CA        35.7010    3.3940    5.8490 C.3    75  VAL75       0.1596
     94  C         36.4590    2.8650    7.0520 C.2    75  VAL75       0.2287
     95  O         36.8460    3.6230    7.9430 O.2    75  VAL75      -0.2864
     96  CB        36.6660    3.4600    4.6410 C.3    75  VAL75       0.0276
     97  CG1       35.9170    3.9340    3.4050 C.3    75  VAL75       0.0022
     98  CG2       37.8390    4.3810    4.9530 C.3    75  VAL75       0.0022
     99  N         44.5140    6.5790    2.8630 N.3    95  ARG95      -0.1245
    100  CA        43.1360    6.4280    2.4040 C.3    95  ARG95       0.1563
    101  C         42.1320    6.5840    3.5400 C.2    95  ARG95       0.2260
    102  O         41.1140    7.2650    3.3920 O.2    95  ARG95      -0.2867
    103  CB        42.9410    5.0650    1.7330 C.3    95  ARG95       0.0307
    104  CG        41.5160    4.8050    1.2680 C.3    95  ARG95       0.0489
    105  CD        41.0460    5.8610    0.2770 C.3    95  ARG95       0.2205
    106  NE        39.6730    5.6300   -0.1700 N.pl3  95  ARG95      -0.0865
    107  CZ        39.0230    6.4110   -1.0270 C.cat  95  ARG95       0.5346
    108  NH1       39.6190    7.4810   -1.5350 N.pl3  95  ARG95       0.1354
    109  NH2       37.7770    6.1260   -1.3780 N.pl3  95  ARG95       0.1354
    110  N         39.2580    9.6460    3.6170 N.3    99  VAL99      -0.1245
    111  CA        37.8110    9.4910    3.6890 C.3    99  VAL99       0.1561
    112  C         37.1870    9.9220    5.0150 C.2    99  VAL99       0.2260
    113  O         36.2600   10.7340    5.0400 O.2    99  VAL99      -0.2867
    114  CB        37.3960    8.0230    3.4230 C.3    99  VAL99       0.0252
    115  CG1       35.8810    7.8930    3.4890 C.3    99  VAL99       0.0019
    116  CG2       37.9160    7.5650    2.0630 C.3    99  VAL99       0.0019
    117  N         31.5170   -0.0480    8.8300 N.3   183  PRO183     -0.2116
    118  CA        32.7260   -0.5530    8.1720 C.3   183  PRO183      0.1372
    119  C         33.7190   -1.1630    9.1610 C.2   183  PRO183      0.2244
    120  O         34.4650   -2.0790    8.8180 O.2   183  PRO183     -0.2868
    121  CB        33.2810    0.6890    7.4840 C.3   183  PRO183      0.0268
    122  CG        32.0370    1.4110    7.0820 C.3   183  PRO183      0.0207
    123  CD        31.1750    1.2970    8.3270 C.3   183  PRO183      0.0892
@<TRIPOS>BOND
     1    43    42    2
     2    59    60    1
     3    60    61    1
     4    42    41    1
     5    42    48   am
     6    61    63   am
     7    61    62    2
     8    49    50    1
     9    49    48    1
    10    49    52    1
    11    63    64    1
    12    50    51    2
    13    67    64    1
    14    67    68    1
    15    47    45    1
    16    41    44    1
    17    41    40    1
    18    35    34    2
    19    70    68   ar
    20    52    53    1
    21    53    54    1
    22    44    45    1
    23    64    65    1
    24    68    69   ar
    25    45    46    1
    26    66    65    2
    27    30    29    1
    28    34    40   am
    29    34    33    1
    30    54    55    1
    31    55    56    2
    32    65    71   am
    33    58    56    1
    34    56    57    1
    35   108   107    1
    36   109   107    1
    37    32    33    1
    38    32    26   am
    39   107   106    2
    40    33    36    1
    41    29    31    1
    42    29    28    1
    43    71    72    1
    44    25    28    1
    45    25    26    1
    46    25    24    1
    47    38    37   ar
    48    36    37    1
    49    26    27    2
    50   106   105    1
    51    73    72    1
    52    73    74    2
    53    72    75    1
    54    37    39   ar
    55   105   104    1
    56     9     6    1
    57   104   103    1
    58     6     5    1
    59     6     7    1
    60    75    76    1
    61    75    77    1
    62   103   100    1
    63   116   114    1
    64     8     7    2
    65     7    10   am
    66   100    99    1
    67   100   101    1
    68   102   101    2
    69    97    96    1
    70   114   115    1
    71   114   111    1
    72     1     2    1
    73    10    11    1
    74   110   111    1
    75   111   112    1
    76     2     3    1
    77    14    15    1
    78    14    11    1
    79     3     4    2
    80    87    84    1
    81    11    12    1
    82    96    98    1
    83    96    93    1
    84   112   113    2
    85    91    90    2
    86    84    85    1
    87    84    83    1
    88    88    85   am
    89    88    89    1
    90    93    92    1
    91    93    94    1
    92    90    92   am
    93    90    89    1
    94    12    13    2
    95    12    16   am
    96    85    86    2
    97    83    80   am
    98    16    17    1
    99    94    95    2
   100   122   121    1
   101   122   123    1
   102    23    22    2
   103    22    21    1
   104    80    81    2
   105    80    79    1
   106   121   118    1
   107    21    20    1
   108    78    79    1
   109   118   117    1
   110   118   119    1
   111    17    18    1
   112   123   117    1
   113    79    82    1
   114   120   119    2
   115    19    18    2
