@<TRIPOS>MOLECULE
tmp/1ub5C00.pdb
 100 95 0 0 0
SMALL
GASTEIGER

@<TRIPOS>ATOM
      1  N         37.0700   48.9710   57.4970 N.3    33  ILE33      -0.1245
      2  CA        37.2560   48.9430   58.9400 C.3    33  ILE33       0.1561
      3  C         38.6530   48.3460   58.9510 C.2    33  ILE33       0.2260
      4  O         38.8260   47.1720   58.5990 O.2    33  ILE33      -0.2867
      5  CB        36.3080   47.9490   59.6300 C.3    33  ILE33       0.0252
      6  CG1       34.8680   48.4480   59.5240 C.3    33  ILE33       0.0019
      7  CG2       36.7120   47.7780   61.1070 C.3    33  ILE33       0.0019
      8  CD1       33.8350   47.4280   59.9490 C.3    33  ILE33       0.0001
      9  N         42.2110   47.2570   60.9160 N.3    35  SER35      -0.1217
     10  CA        42.5600   46.7960   62.2570 C.3    35  SER35       0.1889
     11  C         44.0310   46.4730   62.4660 C.2    35  SER35       0.2288
     12  O         44.8160   46.3700   61.5200 O.2    35  SER35      -0.2866
     13  CB        41.7780   45.5300   62.5800 C.3    35  SER35       0.2089
     14  OG        40.3930   45.6980   62.4070 O.3    35  SER35      -0.2183
     15  N         46.1990   43.6490   64.9120 N.3    37  VAL37      -0.1245
     16  CA        46.0330   42.4630   65.7360 C.3    37  VAL37       0.1561
     17  C         47.4540   42.0680   66.0980 C.2    37  VAL37       0.2260
     18  O         48.3880   42.4830   65.4260 O.2    37  VAL37      -0.2867
     19  CB        45.3240   41.3370   64.9430 C.3    37  VAL37       0.0252
     20  CG1       45.3200   40.0620   65.7400 C.3    37  VAL37       0.0019
     21  CG2       43.8800   41.7530   64.6460 C.3    37  VAL37       0.0019
     22  N         46.1200   34.7630   68.1230 N.3    45  LEU45      -0.1245
     23  CA        45.8290   36.1610   67.8120 C.3    45  LEU45       0.1561
     24  C         44.9570   36.9260   68.7990 C.2    45  LEU45       0.2260
     25  O         43.9680   36.4120   69.3180 O.2    45  LEU45      -0.2867
     26  CB        45.2040   36.2790   66.4200 C.3    45  LEU45       0.0270
     27  CG        46.1500   36.2610   65.2210 C.3    45  LEU45       0.0019
     28  CD1       47.1680   37.3790   65.3650 C.3    45  LEU45       0.0001
     29  CD2       46.8520   34.9310   65.1350 C.3    45  LEU45       0.0001
     30  N         43.0970   40.8120   69.2270 N.3    47  TRP47      -0.1241
     31  CA        42.7010   42.0600   68.5700 C.3    47  TRP47       0.1605
     32  C         43.2840   43.2210   69.3790 C.2    47  TRP47       0.2264
     33  O         43.2260   43.2040   70.6080 O.2    47  TRP47      -0.2867
     34  CB        41.1820   42.1580   68.5430 C.3    47  TRP47       0.0550
     35  CG        40.6460   43.4800   68.1030 C.ar   47  TRP47       0.0003
     36  CD1       40.8680   44.1090   66.9010 C.ar   47  TRP47       0.0946
     37  CD2       39.7370   44.3100   68.8310 C.ar   47  TRP47       0.0152
     38  NE1       40.1450   45.2790   66.8420 N.ar   47  TRP47      -0.2442
     39  CE2       39.4420   45.4270   68.0110 C.ar   47  TRP47       0.0810
     40  CE3       39.1370   44.2190   70.0970 C.ar   47  TRP47       0.0012
     41  CZ2       38.5710   46.4450   68.4180 C.ar   47  TRP47       0.0191
     42  CZ3       38.2700   45.2330   70.5030 C.ar   47  TRP47       0.0001
     43  CH2       37.9960   46.3330   69.6620 C.ar   47  TRP47       0.0015
     44  N         40.7750   48.8280   65.9780 N.3    50  SER50      -0.1217
     45  CA        40.0820   48.9420   64.6960 C.3    50  SER50       0.1889
     46  C         39.6000   50.3800   64.5240 C.2    50  SER50       0.2288
     47  O         39.3390   51.0740   65.5080 O.2    50  SER50      -0.2866
     48  CB        38.8580   48.0210   64.6410 C.3    50  SER50       0.2089
     49  OG        39.2180   46.6550   64.6180 O.3    50  SER50      -0.2183
     50  N         50.2040   42.8620   63.4920 N.3    94  TYR94      -0.1241
     51  CA        49.7200   42.7920   62.1240 C.3    94  TYR94       0.1605
     52  C         48.7030   43.8780   61.8200 C.2    94  TYR94       0.2264
     53  O         47.8820   44.2490   62.6550 O.2    94  TYR94      -0.2867
     54  CB        49.0370   41.4490   61.8550 C.3    94  TYR94       0.0534
     55  CG        49.9420   40.2420   61.8630 C.ar   94  TYR94      -0.0201
     56  CD1       50.5750   39.8150   60.6950 C.ar   94  TYR94      -0.0009
     57  CD2       50.1130   39.4880   63.0230 C.ar   94  TYR94      -0.0009
     58  CE1       51.3450   38.6650   60.6750 C.ar   94  TYR94       0.0417
     59  CE2       50.8850   38.3270   63.0170 C.ar   94  TYR94       0.0417
     60  CZ        51.4920   37.9230   61.8340 C.ar   94  TYR94       0.1957
     61  OH        52.2100   36.7570   61.7920 O.3    94  TYR94      -0.2866
     62  N         45.5610   44.7600   59.3340 N.3    96  ALA96      -0.1245
     63  CA        44.6010   43.9330   58.6110 C.3    96  ALA96       0.1562
     64  C         43.3410   44.6010   58.0690 C.2    96  ALA96       0.2260
     65  O         42.7510   45.4710   58.7100 O.2    96  ALA96      -0.2867
     66  CB        44.1890   42.7450   59.4980 C.3    96  ALA96       0.0290
     67  N         40.1820   43.2810   57.5690 N.3    98  GLY98      -0.1210
     68  CA        39.4010   42.1000   57.9100 C.3    98  GLY98       0.1956
     69  C         38.0970   41.7630   57.1980 C.2    98  GLY98       0.2611
     70  O         37.7030   40.6010   57.1860 O.2    98  GLY98      -0.2717
     71  N         37.4240   42.7540   56.6250 N.am   99  GLN99      -0.1979
     72  CA        36.1480   42.5400   55.9410 C.3    99  GLN99       0.1601
     73  C         36.2300   41.6900   54.6710 C.2    99  GLN99       0.2287
     74  O         37.1960   41.7660   53.9320 O.2    99  GLN99      -0.2864
     75  CB        35.5290   43.8920   55.5760 C.3    99  GLN99       0.0394
     76  CG        35.1190   44.7440   56.7710 C.3    99  GLN99       0.0908
     77  CD        34.8790   46.1970   56.3920 C.2    99  GLN99       0.2608
     78  OE1       35.7910   46.8940   55.9510 O.2    99  GLN99      -0.2717
     79  NE2       33.6470   46.6570   56.5610 N.am   99  GLN99      -0.0878
     80  N         39.7510   38.5520   54.1350 N.3   102  PRO102     -0.2116
     81  CA        40.7840   39.1720   54.9760 C.3   102  PRO102      0.1372
     82  C         42.1670   39.2490   54.3510 C.2   102  PRO102      0.2244
     83  O         42.6120   38.3120   53.7060 O.2   102  PRO102     -0.2868
     84  CB        40.7950   38.2870   56.2340 C.3   102  PRO102      0.0268
     85  CG        39.4530   37.6190   56.2260 C.3   102  PRO102      0.0207
     86  CD        39.2480   37.3210   54.7610 C.3   102  PRO102      0.0892
     87  N         46.2430   40.6130   55.4700 N.3   104  TRP104     -0.1241
     88  CA        47.1130   41.0450   56.5720 C.3   104  TRP104      0.1605
     89  C         48.5520   40.9960   56.0930 C.2   104  TRP104      0.2264
     90  O         48.8620   40.3000   55.1250 O.2   104  TRP104     -0.2867
     91  CB        46.9330   40.1600   57.8170 C.3   104  TRP104      0.0550
     92  CG        47.1320   38.6960   57.5660 C.ar  104  TRP104      0.0003
     93  CD1       48.3260   38.0380   57.4300 C.ar  104  TRP104      0.0946
     94  CD2       46.1070   37.6970   57.4510 C.ar  104  TRP104      0.0152
     95  NE1       48.1030   36.6920   57.2450 N.ar  104  TRP104     -0.2442
     96  CE2       46.7520   36.4560   57.2570 C.ar  104  TRP104      0.0810
     97  CE3       44.7040   37.7330   57.4950 C.ar  104  TRP104      0.0012
     98  CZ2       46.0420   35.2530   57.1130 C.ar  104  TRP104      0.0191
     99  CZ3       43.9930   36.5360   57.3510 C.ar  104  TRP104      0.0001
    100  CH2       44.6690   35.3110   57.1640 C.ar  104  TRP104      0.0015
@<TRIPOS>BOND
     1    83    82    2
     2    74    73    2
     3    80    86    1
     4    80    81    1
     5    82    81    1
     6    73    72    1
     7    86    85    1
     8    81    84    1
     9    90    89    2
    10    87    88    1
    11    75    72    1
    12    75    76    1
    13    72    71    1
    14    78    77    2
    15    89    88    1
    16    85    84    1
    17    77    79   am
    18    77    76    1
    19    88    91    1
    20    71    69   am
    21    98   100   ar
    22    98    96   ar
    23   100    99   ar
    24    70    69    2
    25    69    68    1
    26    95    96   ar
    27    95    93   ar
    28    96    94   ar
    29    99    97   ar
    30    93    92   ar
    31    94    97   ar
    32    94    92   ar
    33     1     2    1
    34    92    91    1
    35    67    68    1
    36    64    63    1
    37    64    65    2
    38     4     3    2
    39    63    62    1
    40    63    66    1
    41     2     3    1
    42     2     5    1
    43     6     5    1
    44     6     8    1
    45     5     7    1
    46    58    56   ar
    47    58    60   ar
    48    56    55   ar
    49     9    10    1
    50    12    11    2
    51    61    60    1
    52    52    51    1
    53    52    53    2
    54    60    59   ar
    55    54    55    1
    56    54    51    1
    57    55    57   ar
    58    51    50    1
    59    10    11    1
    60    10    13    1
    61    14    13    1
    62    59    57   ar
    63    46    45    1
    64    46    47    2
    65    49    48    1
    66    48    45    1
    67    21    19    1
    68    45    44    1
    69    15    16    1
    70    19    16    1
    71    19    20    1
    72    29    27    1
    73    27    28    1
    74    27    26    1
    75    18    17    2
    76    16    17    1
    77    26    23    1
    78    38    36   ar
    79    38    39   ar
    80    36    35   ar
    81    23    22    1
    82    23    24    1
    83    39    41   ar
    84    39    37   ar
    85    35    34    1
    86    35    37   ar
    87    41    43   ar
    88    34    31    1
    89    31    30    1
    90    31    32    1
    91    24    25    2
    92    37    40   ar
    93    32    33    2
    94    43    42   ar
    95    40    42   ar
