@<TRIPOS>MOLECULE
tmp/1ubmB00.pdb
 87 84 0 0 0
SMALL
GASTEIGER

@<TRIPOS>ATOM
      1  N         44.8760   56.7140  108.5520 N.3   306  PHE306     -0.1227
      2  CA        44.3770   57.4900  107.4290 C.3   306  PHE306      0.1736
      3  C         43.7190   58.7950  107.8320 C.2   306  PHE306      0.2595
      4  O         43.3270   59.5530  106.9450 O.2   306  PHE306     -0.2718
      5  CB        43.3660   56.6170  106.6750 C.3   306  PHE306      0.0547
      6  CG        44.1460   55.6260  105.8370 C.ar  306  PHE306     -0.0202
      7  CD1       44.5620   56.0220  104.5800 C.ar  306  PHE306     -0.0042
      8  CD2       44.4240   54.3780  106.3430 C.ar  306  PHE306     -0.0042
      9  CE1       45.2800   55.1270  103.8100 C.ar  306  PHE306     -0.0003
     10  CE2       45.1360   53.5050  105.5480 C.ar  306  PHE306     -0.0003
     11  CZ        45.5650   53.8740  104.2860 C.ar  306  PHE306     -0.0000
     12  N         43.6120   58.9950  109.1450 N.am  307  LYS307     -0.1980
     13  CA        43.1150   60.2910  109.6220 C.3   307  LYS307      0.1596
     14  C         44.2510   61.3090  109.6140 C.2   307  LYS307      0.2287
     15  O         44.0810   62.5250  109.7500 O.2   307  LYS307     -0.2864
     16  CB        42.4570   60.1380  111.0030 C.3   307  LYS307      0.0298
     17  CG        41.1320   59.3610  110.9470 C.3   307  LYS307      0.0038
     18  CD        41.2610   57.8490  110.9820 C.3   307  LYS307      0.0206
     19  CE        41.3050   57.1400  109.6360 C.3   307  LYS307      0.1093
     20  NZ        41.5640   55.6660  109.7550 N.3   307  LYS307     -0.1314
     21  N         42.7630   53.7610   99.0820 N.3   374  LEU374     -0.1245
     22  CA        42.6040   54.1220  100.4930 C.3   374  LEU374      0.1561
     23  C         42.9110   55.5800  100.7480 C.2   374  LEU374      0.2260
     24  O         42.2360   56.2870  101.4940 O.2   374  LEU374     -0.2867
     25  CB        43.5010   53.2360  101.3620 C.3   374  LEU374      0.0270
     26  CG        43.0900   51.7630  101.4210 C.3   374  LEU374      0.0019
     27  CD1       44.0660   50.9690  102.2650 C.3   374  LEU374      0.0001
     28  CD2       41.6960   51.5560  101.9910 C.3   374  LEU374      0.0001
     29  N         40.1330   57.7770   99.2080 N.3   377  TYR377     -0.1227
     30  CA        38.9810   57.6360  100.0960 C.3   377  TYR377      0.1736
     31  C         39.1470   58.6060  101.2710 C.2   377  TYR377      0.2596
     32  O         38.1810   59.3020  101.5950 O.2   377  TYR377     -0.2718
     33  CB        38.7960   56.2130  100.6200 C.3   377  TYR377      0.0548
     34  CG        37.4410   55.9180  101.2360 C.ar  377  TYR377     -0.0200
     35  CD1       36.4430   55.2430  100.5650 C.ar  377  TYR377     -0.0009
     36  CD2       37.1610   56.3230  102.5310 C.ar  377  TYR377     -0.0009
     37  CE1       35.2230   55.0040  101.1920 C.ar  377  TYR377      0.0417
     38  CE2       35.9560   56.1020  103.1750 C.ar  377  TYR377      0.0417
     39  CZ        34.9820   55.4230  102.4670 C.ar  377  TYR377      0.1957
     40  OH        33.7780   55.1900  103.0870 O.3   377  TYR377     -0.2866
     41  N         40.3330   58.5710  101.8660 N.am  378  SER378     -0.1952
     42  CA        40.6240   59.3590  103.0480 C.3   378  SER378      0.1924
     43  C         40.7420   60.8520  102.7750 C.2   378  SER378      0.2314
     44  O         40.7090   61.5990  103.7550 O.2   378  SER378     -0.2863
     45  CB        41.9350   58.9010  103.6870 C.3   378  SER378      0.2116
     46  OG        41.7290   57.5880  104.1840 O.3   378  SER378     -0.2180
     47  N         33.7190   52.4030   96.6630 N.3   388  THR388     -0.1218
     48  CA        34.2690   51.6080   97.7630 C.3   388  THR388      0.1862
     49  C         33.1640   51.2150   98.7270 C.2   388  THR388      0.2287
     50  O         33.0500   50.0480   99.1170 O.2   388  THR388     -0.2866
     51  CB        35.3680   52.3700   98.5040 C.3   388  THR388      0.1770
     52  OG1       36.4450   52.6180   97.5710 O.3   388  THR388     -0.2211
     53  CG2       35.9360   51.5210   99.6110 C.3   388  THR388      0.0375
     54  N         32.1310   47.3410   99.6750 N.3   392  LEU392     -0.1245
     55  CA        32.1090   46.8990  101.0750 C.3   392  LEU392      0.1561
     56  C         30.6980   46.4280  101.4220 C.2   392  LEU392      0.2260
     57  O         30.4820   45.3910  102.0580 O.2   392  LEU392     -0.2867
     58  CB        32.6030   48.0290  101.9560 C.3   392  LEU392      0.0270
     59  CG        34.0620   48.0910  102.4350 C.3   392  LEU392      0.0019
     60  CD1       35.0220   47.5220  101.4230 C.3   392  LEU392      0.0001
     61  CD2       34.4670   49.5160  102.7980 C.3   392  LEU392      0.0001
     62  N         35.4940   48.2570  106.7410 N.3   399  PRO399     -0.2116
     63  CA        36.6270   48.8490  106.0510 C.3   399  PRO399      0.1372
     64  C         37.9350   48.1520  106.3890 C.2   399  PRO399      0.2244
     65  O         38.8480   48.1540  105.5750 O.2   399  PRO399     -0.2868
     66  CB        36.6720   50.2680  106.6190 C.3   399  PRO399      0.0268
     67  CG        35.8200   50.2530  107.8360 C.3   399  PRO399      0.0207
     68  CD        34.7800   49.1900  107.6140 C.3   399  PRO399      0.0892
     69  N         39.7750   45.8460  104.0620 N.3   402  LEU402     -0.1231
     70  CA        40.6090   46.2080  102.9130 C.3   402  LEU402      0.1693
     71  C         42.0930   45.9450  103.1470 C.2   402  LEU402      0.2592
     72  O         42.8340   45.8500  102.1720 O.2   402  LEU402     -0.2718
     73  CB        40.4150   47.6880  102.5240 C.3   402  LEU402      0.0284
     74  CG        38.9650   48.0060  102.1420 C.3   402  LEU402      0.0019
     75  CD1       38.6480   49.4460  102.4960 C.3   402  LEU402      0.0001
     76  CD2       38.7560   47.6750  100.6750 C.3   402  LEU402      0.0001
     77  N         42.5150   45.8410  104.3990 N.am  403  PHE403     -0.1976
     78  CA        43.9300   45.6450  104.6780 C.3   403  PHE403      0.1639
     79  C         44.2770   44.1630  104.5990 C.2   403  PHE403      0.2290
     80  O         44.5500   43.4930  105.6060 O.2   403  PHE403     -0.2864
     81  CB        44.3140   46.1670  106.0510 C.3   403  PHE403      0.0560
     82  CG        44.0730   47.6490  106.1860 C.ar  403  PHE403     -0.0200
     83  CD1       44.8760   48.5470  105.5220 C.ar  403  PHE403     -0.0042
     84  CD2       43.0420   48.1240  106.9780 C.ar  403  PHE403     -0.0042
     85  CE1       44.6360   49.9010  105.6740 C.ar  403  PHE403     -0.0003
     86  CE2       42.7950   49.4840  107.1270 C.ar  403  PHE403     -0.0003
     87  CZ        43.6050   50.3650  106.4440 C.ar  403  PHE403     -0.0000
@<TRIPOS>BOND
     1    47    48    1
     2    52    51    1
     3    48    51    1
     4    48    49    1
     5    51    53    1
     6    49    50    2
     7    21    22    1
     8    29    30    1
     9    54    55    1
    10    30    33    1
    11    30    31    1
    12    22    23    1
    13    22    25    1
    14    35    37   ar
    15    35    34   ar
    16    33    34    1
    17    76    74    1
    18    23    24    2
    19    55    56    1
    20    55    58    1
    21    37    39   ar
    22    34    36   ar
    23    31    32    2
    24    31    41   am
    25    25    26    1
    26    26    28    1
    27    26    27    1
    28    56    57    2
    29    60    59    1
    30    41    42    1
    31    58    59    1
    32    74    75    1
    33    74    73    1
    34    72    71    2
    35    59    61    1
    36    39    40    1
    37    39    38   ar
    38    73    70    1
    39    36    38   ar
    40    43    42    1
    41    43    44    2
    42    70    71    1
    43    70    69    1
    44    42    45    1
    45    71    77   am
    46    45    46    1
    47     9    11   ar
    48     9     7   ar
    49    11    10   ar
    50    77    78    1
    51     7     6   ar
    52    79    78    1
    53    79    80    2
    54    78    81    1
    55    83    85   ar
    56    83    82   ar
    57    10     8   ar
    58    65    64    2
    59    85    87   ar
    60     6     8   ar
    61     6     5    1
    62    81    82    1
    63    63    64    1
    64    63    66    1
    65    63    62    1
    66    82    84   ar
    67    87    86   ar
    68    66    67    1
    69     5     2    1
    70    62    68    1
    71     4     3    2
    72    84    86   ar
    73     2     3    1
    74     2     1    1
    75    68    67    1
    76     3    12   am
    77    12    13    1
    78    14    13    1
    79    14    15    2
    80    13    16    1
    81    19    20    1
    82    19    18    1
    83    17    18    1
    84    17    16    1
