@<TRIPOS>MOLECULE
tmp/1ubsB00.pdb
 116 112 0 0 0
SMALL
GASTEIGER

@<TRIPOS>ATOM
      1  N         84.6960    8.6960    7.0840 N.3    84  HIS84      -0.1226
      2  CA        83.7980    7.5840    7.3570 C.3    84  HIS84       0.1752
      3  C         82.3790    7.8720    6.8550 C.2    84  HIS84       0.2596
      4  O         81.6330    6.9050    6.6940 O.2    84  HIS84      -0.2718
      5  CB        83.6660    7.2340    8.9190 C.3    84  HIS84       0.0759
      6  CG        82.9570    8.3420    9.6580 C.ar   84  HIS84       0.0818
      7  ND1       83.4780    9.5850    9.8180 N.ar   84  HIS84      -0.2268
      8  CD2       81.7010    8.4420   10.1550 C.ar   84  HIS84       0.1154
      9  CE1       82.6520   10.4330   10.3670 C.ar   84  HIS84       0.1986
     10  NE2       81.5450    9.7610   10.5250 N.ar   84  HIS84      -0.2212
     11  N         82.0060    9.1190    6.6770 N.am   85  THR85      -0.1953
     12  CA        80.6500    9.5060    6.2460 C.3    85  THR85       0.1897
     13  C         80.1210    8.7970    5.0000 C.2    85  THR85       0.2313
     14  O         78.9070    8.5730    4.7990 O.2    85  THR85      -0.2863
     15  CB        80.5310   11.0600    6.0650 C.3    85  THR85       0.1794
     16  OG1       81.7450   11.5600    5.4210 O.3    85  THR85      -0.2208
     17  CG2       80.3360   11.7630    7.4030 C.3    85  THR85       0.0378
     18  N         71.4530   17.2190    5.6750 N.3   107  GLU107     -0.1231
     19  CA        71.8330   18.4120    6.4500 C.3   107  GLU107      0.1699
     20  C         73.3480   18.2280    6.6330 C.2   107  GLU107      0.2593
     21  O         73.7590   17.0420    6.6230 O.2   107  GLU107     -0.2718
     22  CB        71.2150   18.5060    7.8600 C.3   107  GLU107      0.0402
     23  CG        71.8660   17.6560    8.9640 C.3   107  GLU107      0.1161
     24  CD        71.8010   16.1940    8.8030 C.2   107  GLU107      0.3649
     25  OE1       70.8890   15.6870    8.1590 O.co2 107  GLU107     -0.2457
     26  OE2       72.6740   15.4440    9.3160 O.co2 107  GLU107     -0.2457
     27  N         74.0700   19.3190    6.7110 N.am  108  THR108     -0.1939
     28  CA        75.5260   19.1920    6.9210 C.3   108  THR108      0.2028
     29  C         76.0100   20.4050    7.7320 C.2   108  THR108      0.2643
     30  O         75.5480   21.5620    7.6290 O.2   108  THR108     -0.2714
     31  CB        76.4030   19.0000    5.6140 C.3   108  THR108      0.1808
     32  OG1       77.7200   18.5370    6.0580 O.3   108  THR108     -0.2208
     33  CG2       76.5440   20.2920    4.8100 C.3   108  THR108      0.0379
     34  N         76.9930   20.0420    8.5640 N.am  109  GLY109     -0.1939
     35  CA        77.6400   21.0460    9.4220 C.3   109  GLY109      0.2014
     36  C         78.9870   21.4910    8.8240 C.2   109  GLY109      0.2639
     37  O         79.0560   22.6190    8.2990 O.2   109  GLY109     -0.2714
     38  N         80.0030   20.6520    8.9780 N.am  110  ALA110     -0.1963
     39  CA        81.3620   20.9150    8.4710 C.3   110  ALA110      0.1728
     40  C         81.3900   20.7830    6.9200 C.2   110  ALA110      0.2617
     41  O         82.2670   21.3950    6.2770 O.2   110  ALA110     -0.2715
     42  CB        82.3390   19.9310    9.0800 C.3   110  ALA110      0.0334
     43  N         80.4860   19.9790    6.3620 N.am  111  GLY111     -0.1940
     44  CA        80.3660   19.7820    4.9270 C.3   111  GLY111      0.2014
     45  C         80.7480   18.4090    4.4690 C.2   111  GLY111      0.2639
     46  O         80.5750   18.1240    3.2620 O.2   111  GLY111     -0.2714
     47  N         81.2670   17.5700    5.3300 N.am  112  GLN112     -0.1963
     48  CA        81.7140   16.2280    5.0260 C.3   112  GLN112      0.1733
     49  C         80.5240   15.3640    4.6590 C.2   112  GLN112      0.2616
     50  O         80.6350   14.5000    3.7850 O.2   112  GLN112     -0.2715
     51  CB        82.4360   15.5070    6.1800 C.3   112  GLN112      0.0408
     52  CG        83.8280   15.0460    5.7950 C.3   112  GLN112      0.0908
     53  CD        84.5870   16.2620    5.2700 C.2   112  GLN112      0.2608
     54  OE1       84.4490   17.3790    5.8070 O.2   112  GLN112     -0.2717
     55  NE2       85.3450   15.9980    4.2020 N.am  112  GLN112     -0.0878
     56  N         79.4670   15.5450    5.4420 N.am  113  HIS113     -0.1973
     57  CA        78.2910   14.6800    5.1790 C.3   113  HIS113      0.1656
     58  C         77.6290   15.2060    3.9060 C.2   113  HIS113      0.2291
     59  O         77.1080   14.4200    3.1070 O.2   113  HIS113     -0.2864
     60  CB        77.3360   14.5410    6.3730 C.3   113  HIS113      0.0771
     61  CG        76.0220   13.9200    6.0120 C.ar  113  HIS113      0.0820
     62  ND1       75.8340   12.5750    5.8580 N.ar  113  HIS113     -0.2267
     63  CD2       74.8210   14.5320    5.8500 C.ar  113  HIS113      0.1154
     64  CE1       74.5590   12.3580    5.6400 C.ar  113  HIS113      0.1986
     65  NE2       73.9420   13.5080    5.5870 N.ar  113  HIS113     -0.2212
     66  N         74.3850   24.3260   12.2860 N.3   164  LEU164     -0.1245
     67  CA        73.8660   22.9800   12.0640 C.3   164  LEU164      0.1561
     68  C         72.4760   22.6870   12.6250 C.2   164  LEU164      0.2260
     69  O         71.7600   21.8600   12.0200 O.2   164  LEU164     -0.2867
     70  CB        74.8460   21.9020   12.4830 C.3   164  LEU164      0.0270
     71  CG        74.4160   20.4650   12.5420 C.3   164  LEU164      0.0019
     72  CD1       74.0600   19.7850   11.2130 C.3   164  LEU164      0.0001
     73  CD2       75.5920   19.6650   13.0960 C.3   164  LEU164      0.0001
     74  N         72.7140   12.7700    8.7750 N.3   187  GLY187     -0.1210
     75  CA        74.1330   12.6800    8.9720 C.3   187  GLY187      0.1956
     76  C         74.8280   11.9790   10.0820 C.2   187  GLY187      0.2612
     77  O         76.0700   11.7470    9.9660 O.2   187  GLY187     -0.2717
     78  N         74.1590   11.5760   11.1510 N.am  188  THR188     -0.1952
     79  CA        74.8340   10.9370   12.2990 C.3   188  THR188      0.1897
     80  C         73.9760    9.9250   12.9880 C.2   188  THR188      0.2313
     81  O         72.8150    9.7380   12.5630 O.2   188  THR188     -0.2863
     82  CB        75.2840   12.1180   13.2520 C.3   188  THR188      0.1794
     83  OG1       75.9950   11.3610   14.2780 O.3   188  THR188     -0.2208
     84  CG2       74.1480   13.0040   13.7630 C.3   188  THR188      0.0378
     85  N         83.3360   19.7020   12.4630 N.3   301  GLY301     -0.1225
     86  CA        82.4760   18.5570   12.4490 C.3   301  GLY301      0.1811
     87  C         82.0000   17.9920   13.7640 C.2   301  GLY301      0.2280
     88  O         81.3550   16.9350   13.7320 O.2   301  GLY301     -0.2866
     89  N         80.1620   19.6440   15.8460 N.3   303  ASP303     -0.1225
     90  CA        79.1870   20.7040   16.1190 C.3   303  ASP303      0.1805
     91  C         77.7700   20.2650   16.4830 C.2   303  ASP303      0.2597
     92  O         76.9700   21.1760   16.7310 O.2   303  ASP303     -0.2718
     93  CB        79.2050   21.6940   14.9420 C.3   303  ASP303      0.1424
     94  CG        78.8880   21.0720   13.5930 C.2   303  ASP303      0.3668
     95  OD1       78.9620   19.8720   13.3410 O.co2 303  ASP303     -0.2456
     96  OD2       78.4940   21.9250   12.7670 O.co2 303  ASP303     -0.2456
     97  N         77.4280   19.0160   16.4860 N.am  304  PHE304     -0.1976
     98  CA        76.0420   18.6070   16.8350 C.3   304  PHE304      0.1639
     99  C         75.9090   18.8300   18.3460 C.2   304  PHE304      0.2290
    100  O         76.6450   18.2340   19.1540 O.2   304  PHE304     -0.2864
    101  CB        75.7870   17.2060   16.3130 C.3   304  PHE304      0.0560
    102  CG        74.3860   16.7150   16.4810 C.ar  304  PHE304     -0.0200
    103  CD1       73.3260   17.3780   15.8600 C.ar  304  PHE304     -0.0042
    104  CD2       74.1250   15.5760   17.2230 C.ar  304  PHE304     -0.0042
    105  CE1       72.0010   16.9080   16.0010 C.ar  304  PHE304     -0.0003
    106  CE2       72.8170   15.0770   17.3790 C.ar  304  PHE304     -0.0003
    107  CZ        71.7620   15.7560   16.7600 C.ar  304  PHE304     -0.0000
    108  N         88.8610   16.6640   13.7880 N.3   348  GLU348     -0.1245
    109  CA        87.8410   15.9480   14.5610 C.3   348  GLU348      0.1567
    110  C         88.5100   14.7440   15.1790 C.2   348  GLU348      0.2260
    111  O         88.4100   14.5530   16.4040 O.2   348  GLU348     -0.2867
    112  CB        86.6140   15.4670   13.7780 C.3   348  GLU348      0.0388
    113  CG        85.7550   16.5520   13.1550 C.3   348  GLU348      0.1160
    114  CD        86.2900   17.3020   11.9580 C.2   348  GLU348      0.3649
    115  OE1       87.1440   16.6610   11.3060 O.co2 348  GLU348     -0.2457
    116  OE2       85.9810   18.4460   11.6710 O.co2 348  GLU348     -0.2457
@<TRIPOS>BOND
     1    59    58    2
     2    46    45    2
     3    50    49    2
     4    58    57    1
     5    55    53   am
     6    45    44    1
     7    45    47   am
     8    49    48    1
     9    49    56   am
    10    14    13    2
    11    33    31    1
    12    44    43    1
    13    13    12    1
    14    48    47    1
    15    48    51    1
    16    57    56    1
    17    57    60    1
    18    53    52    1
    19    53    54    2
    20    16    15    1
    21    65    64   ar
    22    65    63   ar
    23    31    32    1
    24    31    28    1
    25    64    62   ar
    26    18    19    1
    27    52    51    1
    28    63    61   ar
    29    62    61   ar
    30    61    60    1
    31    15    12    1
    32    15    17    1
    33    12    11    1
    34    41    40    2
    35    43    40   am
    36    19    20    1
    37    19    22    1
    38    21    20    2
    39    20    27   am
    40    11     3   am
    41     4     3    2
    42    27    28    1
    43     3     2    1
    44    40    39    1
    45    28    29    1
    46     1     2    1
    47     2     5    1
    48    30    29    2
    49    29    34   am
    50    22    23    1
    51    25    24   ar
    52    37    36    2
    53    39    38    1
    54    39    42    1
    55    34    35    1
    56    74    75    1
    57    24    23    1
    58    24    26   ar
    59    36    38   am
    60    36    35    1
    61     5     6    1
    62    75    76    1
    63     6     7   ar
    64     6     8   ar
    65     7     9   ar
    66    77    76    2
    67    76    78   am
    68     8    10   ar
    69     9    10   ar
    70    78    79    1
    71    72    71    1
    72   115   114   ar
    73   116   114   ar
    74   114   113    1
    75    69    68    2
    76    67    66    1
    77    67    70    1
    78    67    68    1
    79    79    80    1
    80    79    82    1
    81    86    85    1
    82    86    87    1
    83    70    71    1
    84    71    73    1
    85    81    80    2
    86    96    94   ar
    87   113   112    1
    88    82    84    1
    89    82    83    1
    90    95    94   ar
    91    94    93    1
    92    88    87    2
    93   112   109    1
    94   108   109    1
    95   109   110    1
    96    93    90    1
    97   110   111    2
    98    89    90    1
    99   103   105   ar
   100   103   102   ar
   101   105   107   ar
   102    90    91    1
   103   101   102    1
   104   101    98    1
   105   102   104   ar
   106    91    97   am
   107    91    92    2
   108    97    98    1
   109   107   106   ar
   110    98    99    1
   111   104   106   ar
   112    99   100    2
