@<TRIPOS>MOLECULE
tmp/1ubwA00.pdb
 157 146 0 0 0
SMALL
GASTEIGER

@<TRIPOS>ATOM
      1  N          9.1480   39.2240   93.1270 N.3    90  PHE90      -0.1241
      2  CA         7.7970   38.7900   93.4480 C.3    90  PHE90       0.1605
      3  C          7.7800   37.9880   94.7840 C.2    90  PHE90       0.2264
      4  O          6.9750   38.2600   95.7110 O.2    90  PHE90      -0.2867
      5  CB         7.2570   37.8550   92.3330 C.3    90  PHE90       0.0534
      6  CG         5.9410   37.3110   92.6820 C.ar   90  PHE90      -0.0203
      7  CD1        4.8560   38.1360   92.6420 C.ar   90  PHE90      -0.0042
      8  CD2        5.8250   36.0980   93.2970 C.ar   90  PHE90      -0.0042
      9  CE1        3.6470   37.7220   93.1190 C.ar   90  PHE90      -0.0003
     10  CE2        4.6070   35.6820   93.7630 C.ar   90  PHE90      -0.0003
     11  CZ         3.5240   36.5120   93.6510 C.ar   90  PHE90      -0.0000
     12  N          6.2120   38.6370   98.7370 N.3    94  SER94      -0.1202
     13  CA         5.4550   37.6810   99.4790 C.3    94  SER94       0.2020
     14  C          6.0460   37.3850  100.8620 C.2    94  SER94       0.2618
     15  O          5.3380   37.4290  101.8700 O.2    94  SER94      -0.2717
     16  CB         5.5090   36.3550   98.7110 C.3    94  SER94       0.2103
     17  OG         4.7880   36.4060   97.5120 O.3    94  SER94      -0.2182
     18  N          7.3150   36.9810  100.8760 N.am   95  LEU95      -0.1979
     19  CA         7.9620   36.6220  102.1120 C.3    95  LEU95       0.1596
     20  C          7.8270   37.7960  103.0720 C.2    95  LEU95       0.2287
     21  O          7.4460   37.6100  104.2240 O.2    95  LEU95      -0.2864
     22  CB         9.4420   36.3910  101.8290 C.3    95  LEU95       0.0297
     23  CG         9.6920   35.2040  100.9000 C.3    95  LEU95       0.0022
     24  CD1       11.1510   34.7980  100.9630 C.3    95  LEU95       0.0001
     25  CD2        8.8770   34.0340  101.3190 C.3    95  LEU95       0.0001
     26  N          5.6380   39.9150  103.4860 N.3    97  ALA97      -0.1231
     27  CA         4.3170   39.7740  104.0680 C.3    97  ALA97       0.1694
     28  C          3.9220   38.5180  104.8140 C.2    97  ALA97       0.2592
     29  O          3.1240   38.6320  105.7420 O.2    97  ALA97      -0.2718
     30  CB         3.2490   40.1240  103.0830 C.3    97  ALA97       0.0304
     31  N          4.4110   37.3400  104.4380 N.am   98  ASP98      -0.1960
     32  CA         4.0440   36.1190  105.2000 C.3    98  ASP98       0.1840
     33  C          4.5130   36.4430  106.6780 C.2    98  ASP98       0.2622
     34  O          3.7730   36.3080  107.6610 O.2    98  ASP98      -0.2715
     35  CB         4.7870   34.9030  104.5920 C.3    98  ASP98       0.1450
     36  CG         4.4330   33.5940  105.2360 C.2    98  ASP98       0.3671
     37  OD1        3.3160   33.0300  105.0190 O.co2  98  ASP98      -0.2456
     38  OD2        5.3810   33.0750  105.8480 O.co2  98  ASP98      -0.2456
     39  N          5.7110   37.0000  106.7860 N.am   99  ASP99      -0.1971
     40  CA         6.3130   37.3000  108.0560 C.3    99  ASP99       0.1709
     41  C          5.4570   38.1860  108.9640 C.2    99  ASP99       0.2293
     42  O          5.3550   37.9710  110.1780 O.2    99  ASP99      -0.2864
     43  CB         7.6810   37.9090  107.7970 C.3    99  ASP99       0.1436
     44  CG         8.6610   36.9340  107.1760 C.2    99  ASP99       0.3671
     45  OD1        8.4950   35.7080  107.4090 O.co2  99  ASP99      -0.2456
     46  OD2        9.6520   37.4250  106.5290 O.co2  99  ASP99      -0.2456
     47  N          2.1450   38.6610  108.7420 N.3   101  MET101     -0.1230
     48  CA         0.9460   37.8630  109.0000 C.3   101  MET101      0.1702
     49  C          1.3380   36.6120  109.8120 C.2   101  MET101      0.2592
     50  O          0.4820   35.8160  110.1300 O.2   101  MET101     -0.2718
     51  CB         0.2620   37.4060  107.6700 C.3   101  MET101      0.0401
     52  CG        -0.5080   38.4740  106.7780 C.3   101  MET101      0.0596
     53  SD        -0.8620   37.8500  105.0810 S.3   101  MET101     -0.1393
     54  CE         0.2970   38.7740  103.9450 C.3   101  MET101      0.0692
     55  N          2.6120   36.4130  110.1240 N.am  102  ASP102     -0.1974
     56  CA         2.9890   35.2250  110.8550 C.3   102  ASP102      0.1709
     57  C          3.7300   35.6460  112.1030 C.2   102  ASP102      0.2293
     58  O          4.0910   34.8170  112.9560 O.2   102  ASP102     -0.2864
     59  CB         3.7940   34.2860  109.9730 C.3   102  ASP102      0.1436
     60  CG         2.9150   33.4600  109.0180 C.2   102  ASP102      0.3671
     61  OD1        1.6700   33.5520  109.1690 O.co2 102  ASP102     -0.2456
     62  OD2        3.4410   32.7920  108.0800 O.co2 102  ASP102     -0.2456
     63  N          6.5160   36.3780  112.5260 N.3   104  SER104     -0.1217
     64  CA         7.7970   35.7270  112.5630 C.3   104  SER104      0.1889
     65  C          8.8220   36.7310  112.9890 C.2   104  SER104      0.2288
     66  O          8.5070   37.9070  113.0960 O.2   104  SER104     -0.2866
     67  CB         8.1950   35.1620  111.2250 C.3   104  SER104      0.2089
     68  OG         7.5410   33.9430  111.0290 O.3   104  SER104     -0.2183
     69  N         14.1740   35.5000  109.0890 N.3   107  ARG107     -0.1245
     70  CA        14.0290   35.0560  107.7400 C.3   107  ARG107      0.1563
     71  C         15.4050   35.0770  107.1560 C.2   107  ARG107      0.2260
     72  O         16.1670   36.0670  107.3970 O.2   107  ARG107     -0.2867
     73  CB        13.1640   36.0350  106.9560 C.3   107  ARG107      0.0307
     74  CG        13.3240   35.9350  105.4580 C.3   107  ARG107      0.0489
     75  CD        11.9630   35.5860  104.9080 C.3   107  ARG107      0.2205
     76  NE        11.8610   34.1350  104.7840 N.pl3 107  ARG107     -0.0865
     77  CZ        10.7380   33.4150  104.8490 C.cat 107  ARG107      0.5346
     78  NH1        9.5220   33.9710  104.9870 N.pl3 107  ARG107      0.1354
     79  NH2       10.7950   32.1040  104.7400 N.pl3 107  ARG107      0.1354
     80  N         -1.2880   32.6070   93.8770 N.3   162  THR162     -0.1203
     81  CA        -0.5090   32.3640   95.1070 C.3   162  THR162      0.1994
     82  C         -1.1930   32.9510   96.3360 C.2   162  THR162      0.2617
     83  O         -1.1320   32.3310   97.3990 O.2   162  THR162     -0.2717
     84  CB         1.0220   32.7300   95.0390 C.3   162  THR162      0.1784
     85  OG1        1.2180   34.0530   95.5090 O.3   162  THR162     -0.2211
     86  CG2        1.5830   32.6550   93.6320 C.3   162  THR162      0.0376
     87  N         -1.8490   34.0940   96.1320 N.am  163  GLU163     -0.1979
     88  CA        -2.6240   34.7930   97.1280 C.3   163  GLU163      0.1602
     89  C         -3.7760   33.9610   97.5890 C.2   163  GLU163      0.2287
     90  O         -4.0320   33.8710   98.8030 O.2   163  GLU163     -0.2864
     91  CB        -3.1040   36.0950   96.5280 C.3   163  GLU163      0.0415
     92  CG        -1.8570   36.9380   96.0730 C.3   163  GLU163      0.1163
     93  CD        -2.2110   38.3170   95.5030 C.2   163  GLU163      0.3649
     94  OE1       -3.4090   38.5530   95.2230 O.co2 163  GLU163     -0.2457
     95  OE2       -1.2790   39.1050   95.1780 O.co2 163  GLU163     -0.2457
     96  N         -2.4260   31.6050   99.5430 N.3   166  GLN166     -0.1245
     97  CA        -2.1210   32.0970  100.8290 C.3   166  GLN166      0.1566
     98  C         -3.4310   32.1310  101.6460 C.2   166  GLN166      0.2260
     99  O         -3.4330   31.8650  102.8840 O.2   166  GLN166     -0.2867
    100  CB        -1.6570   33.5150  100.6570 C.3   166  GLN166      0.0367
    101  CG        -1.3620   34.1860  101.9520 C.3   166  GLN166      0.0905
    102  CD        -0.1360   33.5600  102.6130 C.2   166  GLN166      0.2608
    103  OE1        0.4660   34.1480  103.4850 O.2   166  GLN166     -0.2717
    104  NE2        0.2130   32.3510  102.2200 N.am  166  GLN166     -0.0878
    105  N         -4.2340   29.1450  103.3090 N.3   169  ASP169     -0.1239
    106  CA        -3.3400   28.8300  104.4000 C.3   169  ASP169      0.1674
    107  C         -3.9200   29.5980  105.5410 C.2   169  ASP169      0.2266
    108  O         -4.3650   29.0100  106.5010 O.2   169  ASP169     -0.2867
    109  CB        -1.9570   29.3580  104.1190 C.3   169  ASP169      0.1410
    110  CG        -0.8620   28.5260  104.7880 C.2   169  ASP169      0.3668
    111  OD1       -1.0780   27.3460  105.0350 O.co2 169  ASP169     -0.2456
    112  OD2        0.2770   29.0100  105.0210 O.co2 169  ASP169     -0.2456
    113  N         -0.1630   28.1370   96.5590 N.3   195  LYS195     -0.1231
    114  CA         0.8180   29.0490   97.1300 C.3   195  LYS195      0.1693
    115  C          2.2380   28.9080   96.7060 C.2   195  LYS195      0.2592
    116  O          2.9710   29.8380   96.8370 O.2   195  LYS195     -0.2718
    117  CB         0.6210   29.3340   98.6320 C.3   195  LYS195      0.0285
    118  CG         1.9050   29.3460   99.4850 C.3   195  LYS195      0.0035
    119  CD         1.6180   29.5540  100.9640 C.3   195  LYS195      0.0206
    120  CE         1.8390   28.2400  101.7470 C.3   195  LYS195      0.1093
    121  NZ         3.2880   28.0580  101.9870 N.3   195  LYS195     -0.1314
    122  N          2.6520   27.8080   96.1090 N.am  196  THR196     -0.1953
    123  CA         4.0650   27.8290   95.7520 C.3   196  THR196      0.1897
    124  C          4.3860   27.2220   94.4320 C.2   196  THR196      0.2313
    125  O          5.2890   27.7070   93.7330 O.2   196  THR196     -0.2863
    126  CB         4.8100   26.9950   96.7410 C.3   196  THR196      0.1794
    127  OG1        4.4350   25.6130   96.5520 O.3   196  THR196     -0.2208
    128  CG2        4.5230   27.4970   98.1740 C.3   196  THR196      0.0378
    129  N          4.0880   29.7480   91.2990 N.3   199  TYR199     -0.1241
    130  CA         5.1430   30.7350   91.2800 C.3   199  TYR199      0.1605
    131  C          6.5430   30.2130   91.2440 C.2   199  TYR199      0.2264
    132  O          7.4200   30.8100   90.6050 O.2   199  TYR199     -0.2867
    133  CB         4.9180   31.8200   92.3200 C.3   199  TYR199      0.0534
    134  CG         5.7100   31.6150   93.5520 C.ar  199  TYR199     -0.0201
    135  CD1        5.2400   30.8170   94.5870 C.ar  199  TYR199     -0.0009
    136  CD2        6.9600   32.2070   93.6550 C.ar  199  TYR199     -0.0009
    137  CE1        5.9930   30.6380   95.7210 C.ar  199  TYR199      0.0417
    138  CE2        7.7470   32.0170   94.7430 C.ar  199  TYR199      0.0417
    139  CZ         7.2590   31.2290   95.7720 C.ar  199  TYR199      0.1957
    140  OH         8.0440   31.0940   96.8610 O.3   199  TYR199     -0.2866
    141  N          9.6660   24.1770  112.6170 N.3   256  ASP256     -0.1239
    142  CA         8.3970   24.8530  112.7740 C.3   256  ASP256      0.1674
    143  C          7.2170   23.8510  112.9360 C.2   256  ASP256      0.2266
    144  O          6.0840   24.0210  112.4650 O.2   256  ASP256     -0.2867
    145  CB         8.2130   25.9490  111.7150 C.3   256  ASP256      0.1410
    146  CG         8.2180   27.3940  112.3260 C.2   256  ASP256      0.3668
    147  OD1        7.6160   27.6420  113.3980 O.co2 256  ASP256     -0.2456
    148  OD2        8.7670   28.3170  111.6840 O.co2 256  ASP256     -0.2456
    149  N          1.6520   24.2800  111.9850 N.3   261  LYS261     -0.1245
    150  CA         1.9140   24.3130  110.5830 C.3   261  LYS261      0.1561
    151  C          1.3210   23.1500  109.8130 C.2   261  LYS261      0.2260
    152  O          1.4930   21.9810  110.1750 O.2   261  LYS261     -0.2867
    153  CB         3.4230   24.2830  110.4280 C.3   261  LYS261      0.0271
    154  CG         3.8450   25.1990  109.3540 C.3   261  LYS261      0.0035
    155  CD         5.2300   25.7970  109.4930 C.3   261  LYS261      0.0206
    156  CE         5.2700   27.0400  108.6060 C.3   261  LYS261      0.1093
    157  NZ         6.5360   27.8210  108.7150 N.3   261  LYS261     -0.1314
@<TRIPOS>BOND
     1   132   131    2
     2   131   130    1
     3   130   129    1
     4   130   133    1
     5   133   134    1
     6     5     6    1
     7     5     2    1
     8     7     6   ar
     9     7     9   ar
    10     6     8   ar
    11     9    11   ar
    12     1     2    1
    13     8    10   ar
    14     2     3    1
    15   134   136   ar
    16   134   135   ar
    17    86    84    1
    18    11    10   ar
    19   136   138   ar
    20   125   124    2
    21    80    81    1
    22   124   123    1
    23   135   137   ar
    24   138   139   ar
    25     3     4    2
    26    84    81    1
    27    84    85    1
    28    81    82    1
    29    95    93   ar
    30    94    93   ar
    31    93    92    1
    32   137   139   ar
    33   123   122    1
    34   123   126    1
    35   139   140    1
    36    92    91    1
    37   122   115   am
    38    87    82   am
    39    87    88    1
    40    82    83    2
    41    91    88    1
    42   127   126    1
    43   113   114    1
    44   115   116    2
    45   115   114    1
    46   126   128    1
    47    88    89    1
    48   114   117    1
    49    17    16    1
    50    89    90    2
    51   117   118    1
    52    16    13    1
    53    12    13    1
    54    13    14    1
    55   118   119    1
    56    96    97    1
    57   100    97    1
    58   100   101    1
    59    97    98    1
    60    14    18   am
    61    14    15    2
    62    18    19    1
    63    23    24    1
    64    23    25    1
    65    23    22    1
    66   119   120    1
    67    98    99    2
    68   120   121    1
    69    22    19    1
    70   101   102    1
    71    19    20    1
    72   104   102   am
    73   102   103    2
    74    20    21    2
    75    30    27    1
    76   105   106    1
    77    26    27    1
    78    54    53    1
    79    27    28    1
    80   109   106    1
    81   109   110    1
    82   106   107    1
    83    31    28   am
    84    31    32    1
    85    35    32    1
    86    35    36    1
    87    79    77    1
    88    76    77    2
    89    76    75    1
    90   110   112   ar
    91   110   111   ar
    92    28    29    2
    93    77    78    1
    94    75    74    1
    95    37    36   ar
    96    53    52    1
    97    32    33    1
    98    36    38   ar
    99    74    73    1
   100   107   108    2
   101    46    44   ar
   102    33    39   am
   103    33    34    2
   104    52    51    1
   105    39    40    1
   106    73    70    1
   107    71    72    2
   108    71    70    1
   109    44    45   ar
   110    44    43    1
   111    51    48    1
   112    70    69    1
   113    43    40    1
   114    40    41    1
   115    62    60   ar
   116   156   157    1
   117   156   155    1
   118    47    48    1
   119    41    42    2
   120    48    49    1
   121    60    61   ar
   122    60    59    1
   123   154   155    1
   124   154   153    1
   125    49    55   am
   126    49    50    2
   127   151   152    2
   128   151   150    1
   129    59    56    1
   130    55    56    1
   131   153   150    1
   132   150   149    1
   133    56    57    1
   134    68    67    1
   135    67    64    1
   136   148   146   ar
   137   145   146    1
   138   145   142    1
   139    57    58    2
   140   146   147   ar
   141   144   143    2
   142    63    64    1
   143    64    65    1
   144   141   142    1
   145   142   143    1
   146    65    66    2
