@<TRIPOS>MOLECULE
tmp/1ubxA00.pdb
 174 161 0 0 0
SMALL
GASTEIGER

@<TRIPOS>ATOM
      1  N          9.3040   39.0140   93.4780 N.3    90  PHE90      -0.1241
      2  CA         7.9100   38.6250   93.7410 C.3    90  PHE90       0.1605
      3  C          7.8480   37.9510   95.0930 C.2    90  PHE90       0.2264
      4  O          7.0740   38.2810   95.9920 O.2    90  PHE90      -0.2867
      5  CB         7.5890   37.5790   92.6810 C.3    90  PHE90       0.0534
      6  CG         6.1960   37.0960   92.7150 C.ar   90  PHE90      -0.0203
      7  CD1        5.1830   37.8220   92.1300 C.ar   90  PHE90      -0.0042
      8  CD2        5.8990   35.8530   93.2380 C.ar   90  PHE90      -0.0042
      9  CE1        3.8720   37.3590   92.1500 C.ar   90  PHE90      -0.0003
     10  CE2        4.6030   35.3580   93.1990 C.ar   90  PHE90      -0.0003
     11  CZ         3.5740   36.1320   92.6880 C.ar   90  PHE90      -0.0000
     12  N          8.4500   40.2990   98.3680 N.3    93  ALA93      -0.1231
     13  CA         7.2130   40.9480   98.7030 C.3    93  ALA93       0.1694
     14  C          6.3990   40.0300   99.5640 C.2    93  ALA93       0.2593
     15  O          6.3660   40.2270  100.7660 O.2    93  ALA93      -0.2718
     16  CB         6.4740   41.2050   97.4530 C.3    93  ALA93       0.0304
     17  N          6.2550   38.8350   99.0190 N.am   94  SER94      -0.1938
     18  CA         5.4060   37.8440   99.6290 C.3    94  SER94       0.2055
     19  C          5.9320   37.5830  100.9870 C.2    94  SER94       0.2642
     20  O          5.3900   38.0290  101.9580 O.2    94  SER94      -0.2714
     21  CB         5.3670   36.5300   98.8460 C.3    94  SER94       0.2130
     22  OG         6.6620   35.9810   98.6660 O.3    94  SER94      -0.2179
     23  N          7.1370   37.0830  101.0490 N.am   95  LEU95      -0.1977
     24  CA         7.6150   36.7610  102.3630 C.3    95  LEU95       0.1596
     25  C          7.9350   37.8180  103.3470 C.2    95  LEU95       0.2287
     26  O          7.8040   37.6000  104.5580 O.2    95  LEU95      -0.2864
     27  CB         8.5350   35.5840  102.4070 C.3    95  LEU95       0.0297
     28  CG         9.5080   35.4510  101.2860 C.3    95  LEU95       0.0022
     29  CD1       10.6970   36.2820  101.7860 C.3    95  LEU95       0.0001
     30  CD2        9.7570   33.9490  101.2450 C.3    95  LEU95       0.0001
     31  N          5.6670   39.9930  103.5740 N.3    97  ALA97      -0.1231
     32  CA         4.2680   39.8870  104.0620 C.3    97  ALA97       0.1694
     33  C          4.0420   38.7960  105.0740 C.2    97  ALA97       0.2592
     34  O          3.3330   39.0240  106.0330 O.2    97  ALA97      -0.2718
     35  CB         3.3040   39.6630  102.9190 C.3    97  ALA97       0.0304
     36  N          4.3470   37.5510  104.6670 N.am   98  ASP98      -0.1960
     37  CA         4.0730   36.4060  105.4990 C.3    98  ASP98       0.1840
     38  C          4.6250   36.6640  106.8810 C.2    98  ASP98       0.2622
     39  O          3.9930   36.4360  107.8890 O.2    98  ASP98      -0.2715
     40  CB         4.7830   35.1990  104.9320 C.3    98  ASP98       0.1450
     41  CG         4.3750   33.9600  105.6340 C.2    98  ASP98       0.3671
     42  OD1        3.1870   33.8270  105.9210 O.co2  98  ASP98      -0.2456
     43  OD2        5.2320   33.1330  105.9380 O.co2  98  ASP98      -0.2456
     44  N          5.8360   37.1790  106.9430 N.am   99  ASP99      -0.1971
     45  CA         6.4340   37.4420  108.2530 C.3    99  ASP99       0.1709
     46  C          5.5790   38.1770  109.2850 C.2    99  ASP99       0.2293
     47  O          5.2850   37.6320  110.3410 O.2    99  ASP99      -0.2864
     48  CB         7.8530   38.0060  108.1140 C.3    99  ASP99       0.1436
     49  CG         8.8330   36.9550  107.6150 C.2    99  ASP99       0.3671
     50  OD1        8.3500   35.7780  107.6510 O.co2  99  ASP99      -0.2456
     51  OD2        9.9810   37.2910  107.1870 O.co2  99  ASP99      -0.2456
     52  N          2.2990   38.5530  109.2590 N.3   101  MET101     -0.1230
     53  CA         1.0220   37.8880  109.5440 C.3   101  MET101      0.1702
     54  C          1.3050   36.6990  110.4060 C.2   101  MET101      0.2592
     55  O          0.4220   36.2220  111.1070 O.2   101  MET101     -0.2718
     56  CB         0.2600   37.4050  108.2910 C.3   101  MET101      0.0401
     57  CG        -0.5680   38.4200  107.4700 C.3   101  MET101      0.0596
     58  SD        -0.8870   37.7340  105.7430 S.3   101  MET101     -0.1393
     59  CE         0.1780   38.8180  104.8070 C.3   101  MET101      0.0692
     60  N          2.4980   36.1540  110.2830 N.am  102  ASP102     -0.1974
     61  CA         2.8470   35.0480  111.1120 C.3   102  ASP102      0.1709
     62  C          3.6260   35.4800  112.3870 C.2   102  ASP102      0.2293
     63  O          3.8260   34.6760  113.3250 O.2   102  ASP102     -0.2864
     64  CB         3.6090   34.0440  110.2710 C.3   102  ASP102      0.1436
     65  CG         2.7060   33.0220  109.6790 C.2   102  ASP102      0.3671
     66  OD1        1.5390   32.9710  110.1120 O.co2 102  ASP102     -0.2456
     67  OD2        3.1430   32.2890  108.7710 O.co2 102  ASP102     -0.2456
     68  N          6.5510   36.1130  112.9820 N.3   104  SER104     -0.1217
     69  CA         7.8700   35.5120  113.1120 C.3   104  SER104      0.1889
     70  C          8.8230   36.5850  113.5970 C.2   104  SER104      0.2288
     71  O          8.4810   37.8010  113.6440 O.2   104  SER104     -0.2866
     72  CB         8.4770   35.0500  111.7760 C.3   104  SER104      0.2089
     73  OG         7.6870   34.1370  111.0390 O.3   104  SER104     -0.2183
     74  N         14.2660   35.4680  109.7310 N.3   107  ARG107     -0.1245
     75  CA        14.2370   35.1030  108.3130 C.3   107  ARG107      0.1563
     76  C         15.6190   35.0240  107.7610 C.2   107  ARG107      0.2260
     77  O         16.3450   36.0210  107.7690 O.2   107  ARG107     -0.2867
     78  CB        13.5760   36.1940  107.4380 C.3   107  ARG107      0.0307
     79  CG        13.5720   35.8490  105.9260 C.3   107  ARG107      0.0489
     80  CD        12.1240   35.6740  105.3040 C.3   107  ARG107      0.2205
     81  NE        11.7980   34.2700  105.0870 N.pl3 107  ARG107     -0.0865
     82  CZ        10.5980   33.7120  105.2840 C.cat 107  ARG107      0.5346
     83  NH1        9.5480   34.4210  105.6840 N.pl3 107  ARG107      0.1354
     84  NH2       10.4410   32.4050  105.0950 N.pl3 107  ARG107      0.1354
     85  N          6.1160   46.0840  101.5120 N.3   127  SER127     -0.1217
     86  CA         5.8530   44.8660  100.7840 C.3   127  SER127      0.1889
     87  C          5.2340   45.2590   99.4640 C.2   127  SER127      0.2288
     88  O          5.3510   44.5600   98.4580 O.2   127  SER127     -0.2866
     89  CB         4.7680   44.0730  101.4730 C.3   127  SER127      0.2089
     90  OG         4.7670   42.7910  100.9000 O.3   127  SER127     -0.2183
     91  N          6.5040   44.5260   95.4330 N.3   131  GLU131     -0.1245
     92  CA         5.5240   44.0690   94.4020 C.3   131  GLU131      0.1567
     93  C          5.5930   44.9350   93.1130 C.2   131  GLU131      0.2260
     94  O          5.7230   44.4580   91.9840 O.2   131  GLU131     -0.2867
     95  CB         4.0710   44.1120   94.9330 C.3   131  GLU131      0.0388
     96  CG         3.0400   43.5850   93.9300 C.3   131  GLU131      0.1160
     97  CD         1.6410   43.5450   94.4650 C.2   131  GLU131      0.3649
     98  OE1        1.1880   44.5240   95.1160 O.co2 131  GLU131     -0.2457
     99  OE2        1.0060   42.5250   94.1650 O.co2 131  GLU131     -0.2457
    100  N          0.2090   35.9020   91.0850 N.3   159  ALA159     -0.1245
    101  CA         0.1120   36.4480   92.4190 C.3   159  ALA159      0.1562
    102  C         -1.2760   36.1550   92.9520 C.2   159  ALA159      0.2260
    103  O         -1.4550   35.8380   94.1040 O.2   159  ALA159     -0.2867
    104  CB         0.3370   37.8690   92.3650 C.3   159  ALA159      0.0290
    105  N         -1.5080   32.6010   94.1600 N.3   162  THR162     -0.1203
    106  CA        -0.6960   32.3890   95.3660 C.3   162  THR162      0.1994
    107  C         -1.3750   33.1200   96.5040 C.2   162  THR162      0.2617
    108  O         -1.4750   32.5960   97.6040 O.2   162  THR162     -0.2717
    109  CB         0.7520   32.9520   95.3490 C.3   162  THR162      0.1784
    110  OG1        0.7110   34.3520   95.5940 O.3   162  THR162     -0.2211
    111  CG2        1.5330   32.6770   94.0650 C.3   162  THR162      0.0376
    112  N         -1.7910   34.3540   96.2550 N.am  163  GLU163     -0.1979
    113  CA        -2.5170   35.0500   97.2630 C.3   163  GLU163      0.1602
    114  C         -3.7110   34.2170   97.8130 C.2   163  GLU163      0.2287
    115  O         -3.8780   34.1160   99.0550 O.2   163  GLU163     -0.2864
    116  CB        -2.9400   36.3850   96.7320 C.3   163  GLU163      0.0415
    117  CG        -1.7350   37.2370   96.5140 C.3   163  GLU163      0.1163
    118  CD        -2.1320   38.5220   95.7990 C.2   163  GLU163      0.3649
    119  OE1       -3.3690   38.6200   95.7260 O.co2 163  GLU163     -0.2457
    120  OE2       -1.3170   39.4050   95.4250 O.co2 163  GLU163     -0.2457
    121  N         -2.3770   31.4270  100.0830 N.3   166  GLN166     -0.1245
    122  CA        -1.8690   31.9760  101.3220 C.3   166  GLN166      0.1566
    123  C         -3.1140   32.1020  102.1260 C.2   166  GLN166      0.2260
    124  O         -3.2600   31.6890  103.2930 O.2   166  GLN166     -0.2867
    125  CB        -1.4330   33.4030  101.0530 C.3   166  GLN166      0.0367
    126  CG        -1.3130   34.1520  102.3370 C.3   166  GLN166      0.0905
    127  CD        -0.1240   33.6860  103.1990 C.2   166  GLN166      0.2608
    128  OE1        0.5860   34.5010  103.7790 O.2   166  GLN166     -0.2717
    129  NE2        0.1460   32.3910  103.2190 N.am  166  GLN166     -0.0878
    130  N         -4.2540   29.0180  103.7360 N.3   169  ASP169     -0.1239
    131  CA        -3.4800   28.7010  104.9160 C.3   169  ASP169      0.1674
    132  C         -4.0810   29.3630  106.1510 C.2   169  ASP169      0.2266
    133  O         -4.6610   28.6970  107.0070 O.2   169  ASP169     -0.2867
    134  CB        -2.0560   29.2630  104.6990 C.3   169  ASP169      0.1410
    135  CG        -0.9800   28.3500  105.2120 C.2   169  ASP169      0.3668
    136  OD1       -1.1170   27.1570  105.0550 O.co2 169  ASP169     -0.2456
    137  OD2        0.0550   28.7710  105.6860 O.co2 169  ASP169     -0.2456
    138  N         -0.1440   28.0180   97.1240 N.3   195  LYS195     -0.1231
    139  CA         0.8120   28.9450   97.7390 C.3   195  LYS195      0.1693
    140  C          2.2710   28.7400   97.3230 C.2   195  LYS195      0.2592
    141  O          3.0820   29.5920   97.5450 O.2   195  LYS195     -0.2718
    142  CB         0.6030   29.1720   99.2750 C.3   195  LYS195      0.0285
    143  CG         1.9040   29.4560  100.1130 C.3   195  LYS195      0.0035
    144  CD         1.6630   29.7690  101.5970 C.3   195  LYS195      0.0206
    145  CE         1.7890   28.5040  102.4750 C.3   195  LYS195      0.1093
    146  NZ         3.1060   27.7980  102.3610 N.3   195  LYS195     -0.1314
    147  N          2.6770   27.6570   96.6760 N.am  196  THR196     -0.1953
    148  CA         4.0860   27.7170   96.3860 C.3   196  THR196      0.1897
    149  C          4.3390   27.1610   95.0490 C.2   196  THR196      0.2313
    150  O          5.3730   27.4930   94.4510 O.2   196  THR196     -0.2863
    151  CB         4.8630   26.8530   97.3670 C.3   196  THR196      0.1794
    152  OG1        4.2400   25.5680   97.3690 O.3   196  THR196     -0.2208
    153  CG2        4.7930   27.4530   98.7910 C.3   196  THR196      0.0378
    154  N          4.2880   29.6040   91.8650 N.3   199  TYR199     -0.1241
    155  CA         5.2650   30.6400   91.6130 C.3   199  TYR199      0.1605
    156  C          6.6420   30.0930   91.6740 C.2   199  TYR199      0.2264
    157  O          7.5610   30.6900   91.1480 O.2   199  TYR199     -0.2867
    158  CB         5.1290   31.8090   92.5650 C.3   199  TYR199      0.0534
    159  CG         5.9010   31.6120   93.8190 C.ar  199  TYR199     -0.0201
    160  CD1        5.4320   30.7690   94.8030 C.ar  199  TYR199     -0.0009
    161  CD2        7.0770   32.2700   94.0020 C.ar  199  TYR199     -0.0009
    162  CE1        6.0950   30.6920   95.9960 C.ar  199  TYR199      0.0417
    163  CE2        7.7470   32.1910   95.1840 C.ar  199  TYR199      0.0417
    164  CZ         7.2730   31.3930   96.1670 C.ar  199  TYR199      0.1957
    165  OH         8.0560   31.1580   97.2420 O.3   199  TYR199     -0.2866
    166  N          7.7480   20.2710   98.1440 N.3   235  GLN235     -0.1245
    167  CA         7.3130   20.8300   99.3960 C.3   235  GLN235      0.1566
    168  C          7.0560   19.7830  100.4090 C.2   235  GLN235      0.2260
    169  O          7.2940   20.0120  101.5890 O.2   235  GLN235     -0.2867
    170  CB         5.9890   21.5010   99.2150 C.3   235  GLN235      0.0367
    171  CG         5.5610   22.2140  100.4890 C.3   235  GLN235      0.0905
    172  CD         6.3410   23.5370  100.7970 C.2   235  GLN235      0.2608
    173  OE1        5.9470   24.3450  101.6950 O.2   235  GLN235     -0.2717
    174  NE2        7.3970   23.7880  100.0140 N.am  235  GLN235     -0.0878
@<TRIPOS>BOND
     1   100   101    1
     2   157   156    2
     3   155   156    1
     4   155   154    1
     5   155   158    1
     6    94    93    2
     7     7     9   ar
     8     7     6   ar
     9     9    11   ar
    10   104   101    1
    11   101   102    1
    12   158   159    1
    13     5     6    1
    14     5     2    1
    15    11    10   ar
    16     6     8   ar
    17   102   103    2
    18    93    92    1
    19    10     8   ar
    20     1     2    1
    21     2     3    1
    22   159   161   ar
    23   159   160   ar
    24    96    97    1
    25    96    95    1
    26   161   163   ar
    27   111   109    1
    28   105   106    1
    29    99    97   ar
    30    92    95    1
    31    92    91    1
    32   150   149    2
    33    97    98   ar
    34   160   162   ar
    35   149   148    1
    36     3     4    2
    37   163   164   ar
    38   109   106    1
    39   109   110    1
    40   106   107    1
    41   120   118   ar
    42   119   118   ar
    43   118   117    1
    44   162   164   ar
    45   164   165    1
    46   112   107   am
    47   112   113    1
    48   148   147    1
    49   148   151    1
    50   107   108    2
    51   117   116    1
    52   147   140   am
    53   116   113    1
    54   138   139    1
    55   113   114    1
    56   140   141    2
    57   140   139    1
    58   151   152    1
    59   151   153    1
    60    16    13    1
    61   139   142    1
    62   114   115    2
    63   166   167    1
    64    12    13    1
    65    88    87    2
    66    22    21    1
    67    13    14    1
    68    21    18    1
    69    17    14   am
    70    17    18    1
    71   170   167    1
    72   170   171    1
    73   142   143    1
    74   167   168    1
    75    87    86    1
    76    14    15    2
    77    18    19    1
    78   174   172   am
    79   121   122    1
    80   143   144    1
    81   168   169    2
    82   171   172    1
    83    86    89    1
    84    86    85    1
    85   172   173    2
    86    90    89    1
    87    19    23   am
    88    19    20    2
    89    23    24    1
    90   125   122    1
    91   125   126    1
    92    30    28    1
    93    28    29    1
    94    28    27    1
    95   122   123    1
    96   144   145    1
    97   123   124    2
    98   126   127    1
    99   146   145    1
   100    24    27    1
   101    24    25    1
   102    35    32    1
   103   127   129   am
   104   127   128    2
   105    25    26    2
   106    31    32    1
   107   130   131    1
   108    32    33    1
   109    36    33   am
   110    36    37    1
   111   134   131    1
   112   134   135    1
   113    59    58    1
   114   131   132    1
   115    40    37    1
   116    40    41    1
   117   136   135   ar
   118    33    34    2
   119    81    82    2
   120    81    80    1
   121    84    82    1
   122   135   137   ar
   123    82    83    1
   124    80    79    1
   125    37    38    1
   126    41    42   ar
   127    41    43   ar
   128    58    57    1
   129    79    78    1
   130   132   133    2
   131    38    44   am
   132    38    39    2
   133    44    45    1
   134    51    49   ar
   135    78    75    1
   136    57    56    1
   137    49    50   ar
   138    49    48    1
   139    76    77    2
   140    76    75    1
   141    48    45    1
   142    45    46    1
   143    56    53    1
   144    75    74    1
   145    67    65   ar
   146    52    53    1
   147    46    47    2
   148    53    54    1
   149    65    66   ar
   150    65    64    1
   151    64    61    1
   152    60    54   am
   153    60    61    1
   154    54    55    2
   155    73    72    1
   156    61    62    1
   157    72    69    1
   158    62    63    2
   159    68    69    1
   160    69    70    1
   161    70    71    2
