@<TRIPOS>MOLECULE
tmp/1ubyA00.pdb
 127 117 0 0 0
SMALL
GASTEIGER

@<TRIPOS>ATOM
      1  N          8.5230   36.7800   94.7220 N.3    91  GLN91      -0.1245
      2  CA         8.5130   35.9150   95.9010 C.3    91  GLN91       0.1566
      3  C          8.8800   36.6110   97.1940 C.2    91  GLN91       0.2260
      4  O          8.3560   36.3190   98.2540 O.2    91  GLN91      -0.2867
      5  CB         9.5020   34.8100   95.6980 C.3    91  GLN91       0.0367
      6  CG         9.7960   34.0850   96.9520 C.3    91  GLN91       0.0905
      7  CD        10.8400   32.9760   96.7080 C.2    91  GLN91       0.2608
      8  OE1       10.5740   31.7740   96.8720 O.2    91  GLN91      -0.2717
      9  NE2       12.0230   33.3860   96.2640 N.am   91  GLN91      -0.0878
     10  N          6.0640   38.4560   98.3730 N.3    94  SER94      -0.1202
     11  CA         5.2800   37.4290   99.0680 C.3    94  SER94       0.2020
     12  C          5.7610   37.2240  100.5050 C.2    94  SER94       0.2618
     13  O          5.1050   37.5850  101.4640 O.2    94  SER94      -0.2717
     14  CB         5.3910   36.0740   98.3390 C.3    94  SER94       0.2103
     15  OG         4.7930   36.0730   97.0590 O.3    94  SER94      -0.2182
     16  N          6.9170   36.5870  100.6320 N.am   95  LEU95      -0.1979
     17  CA         7.5380   36.3180  101.9230 C.3    95  LEU95       0.1596
     18  C          7.4730   37.4800  102.9030 C.2    95  LEU95       0.2287
     19  O          7.1770   37.2710  104.1060 O.2    95  LEU95      -0.2864
     20  CB         9.0160   36.0190  101.7060 C.3    95  LEU95       0.0297
     21  CG         9.2750   34.7820  100.8590 C.3    95  LEU95       0.0022
     22  CD1       10.7560   34.5560  100.7200 C.3    95  LEU95       0.0001
     23  CD2        8.5030   33.5120  101.3260 C.3    95  LEU95       0.0001
     24  N          4.2850   37.0890  104.1700 N.3    98  ASP98      -0.1225
     25  CA         4.0420   35.8840  104.9310 C.3    98  ASP98       0.1805
     26  C          4.5330   36.1630  106.3740 C.2    98  ASP98       0.2597
     27  O          3.7970   35.9510  107.3190 O.2    98  ASP98      -0.2718
     28  CB         4.6910   34.7010  104.2830 C.3    98  ASP98       0.1424
     29  CG         4.4170   33.4580  105.0550 C.2    98  ASP98       0.3668
     30  OD1        3.2990   32.9250  104.9400 O.co2  98  ASP98      -0.2456
     31  OD2        5.2810   33.1120  105.9130 O.co2  98  ASP98      -0.2456
     32  N          5.6490   36.8680  106.4720 N.am   99  ASP99      -0.1974
     33  CA         6.2480   37.2060  107.7530 C.3    99  ASP99       0.1709
     34  C          5.3910   38.0590  108.7460 C.2    99  ASP99       0.2293
     35  O          5.3630   37.7810  109.9410 O.2    99  ASP99      -0.2864
     36  CB         7.7070   37.7190  107.5760 C.3    99  ASP99       0.1436
     37  CG         8.6370   36.6700  106.9990 C.2    99  ASP99       0.3671
     38  OD1        8.3750   35.4560  107.1920 O.co2  99  ASP99      -0.2456
     39  OD2        9.5770   37.0460  106.2660 O.co2  99  ASP99      -0.2456
     40  N          2.5130   36.1060  110.0660 N.3   102  ASP102     -0.1239
     41  CA         2.8400   34.9500  110.8490 C.3   102  ASP102      0.1674
     42  C          3.5700   35.3640  112.1050 C.2   102  ASP102      0.2266
     43  O          3.7670   34.5460  112.9850 O.2   102  ASP102     -0.2867
     44  CB         3.6490   33.9650  110.0050 C.3   102  ASP102      0.1410
     45  CG         2.8140   33.2970  108.9230 C.2   102  ASP102      0.3668
     46  OD1        1.6020   33.5310  108.9040 O.co2 102  ASP102     -0.2456
     47  OD2        3.3060   32.4310  108.1660 O.co2 102  ASP102     -0.2456
     48  N         14.2700   35.2050  108.9030 N.3   107  ARG107     -0.1245
     49  CA        14.1400   34.8200  107.5080 C.3   107  ARG107      0.1563
     50  C         15.4600   34.8010  106.7780 C.2   107  ARG107      0.2260
     51  O         16.1640   35.8370  106.7530 O.2   107  ARG107     -0.2867
     52  CB        13.3250   35.8590  106.7690 C.3   107  ARG107      0.0307
     53  CG        13.3230   35.5790  105.2520 C.3   107  ARG107      0.0489
     54  CD        11.8940   35.3110  104.7350 C.3   107  ARG107      0.2205
     55  NE        11.6330   33.8930  104.4830 N.pl3 107  ARG107     -0.0865
     56  CZ        10.4370   33.3000  104.5930 C.cat 107  ARG107      0.5346
     57  NH1        9.3620   33.9820  104.9700 N.pl3 107  ARG107      0.1354
     58  NH2       10.3130   32.0060  104.3300 N.pl3 107  ARG107      0.1354
     59  N         -1.3130   32.4290   93.7420 N.3   162  THR162     -0.1218
     60  CA        -0.5990   32.1540   94.9840 C.3   162  THR162      0.1862
     61  C         -1.3600   32.7740   96.2120 C.2   162  THR162      0.2287
     62  O         -1.5540   32.1110   97.2330 O.2   162  THR162     -0.2866
     63  CB         0.9320   32.4940   94.9050 C.3   162  THR162      0.1770
     64  OG1        1.2090   33.7020   95.6180 O.3   162  THR162     -0.2211
     65  CG2        1.4050   32.6940   93.4750 C.3   162  THR162      0.0375
     66  N         -2.3890   31.2260   99.4020 N.3   166  GLN166     -0.1245
     67  CA        -2.0140   31.7800  100.6400 C.3   166  GLN166      0.1566
     68  C         -3.2320   31.8800  101.4840 C.2   166  GLN166      0.2260
     69  O         -3.2060   31.7370  102.6960 O.2   166  GLN166     -0.2867
     70  CB        -1.5410   33.1830  100.4300 C.3   166  GLN166      0.0367
     71  CG        -1.3200   33.8420  101.7600 C.3   166  GLN166      0.0905
     72  CD        -0.0320   33.3520  102.4310 C.2   166  GLN166      0.2608
     73  OE1        0.8620   34.1350  102.6680 O.2   166  GLN166     -0.2717
     74  NE2        0.0800   32.0540  102.6830 N.am  166  GLN166     -0.0878
     75  N         -4.1490   28.8110  103.0800 N.3   169  ASP169     -0.1225
     76  CA        -3.2680   28.5520  104.1940 C.3   169  ASP169      0.1805
     77  C         -3.8110   29.3050  105.4010 C.2   169  ASP169      0.2597
     78  O         -4.1380   28.7110  106.4190 O.2   169  ASP169     -0.2718
     79  CB        -1.9070   29.1690  103.8750 C.3   169  ASP169      0.1424
     80  CG        -0.7510   28.3800  104.4780 C.2   169  ASP169      0.3668
     81  OD1       -1.0160   27.2300  104.8550 O.co2 169  ASP169     -0.2456
     82  OD2        0.3670   28.9390  104.6590 O.co2 169  ASP169     -0.2456
     83  N         -3.8780   30.6240  105.2680 N.am  170  LEU170     -0.1979
     84  CA        -4.2740   31.4940  106.3520 C.3   170  LEU170      0.1596
     85  C         -5.5490   31.0380  107.0410 C.2   170  LEU170      0.2287
     86  O         -5.7970   31.2970  108.2370 O.2   170  LEU170     -0.2864
     87  CB        -4.4300   32.9050  105.8160 C.3   170  LEU170      0.0297
     88  CG        -3.2320   33.8280  105.9930 C.3   170  LEU170      0.0022
     89  CD1       -1.8270   33.2400  106.2230 C.3   170  LEU170      0.0001
     90  CD2       -3.2290   34.9910  105.0300 C.3   170  LEU170      0.0001
     91  N         -0.1050   27.9730   96.4520 N.3   195  LYS195     -0.1231
     92  CA         0.8560   28.8280   97.1490 C.3   195  LYS195      0.1693
     93  C          2.2900   28.7930   96.6480 C.2   195  LYS195      0.2592
     94  O          3.0610   29.7240   96.8850 O.2   195  LYS195     -0.2718
     95  CB         0.7860   28.6030   98.6730 C.3   195  LYS195      0.0285
     96  CG         1.8510   29.4040   99.4800 C.3   195  LYS195      0.0035
     97  CD         1.5830   29.5550  101.0120 C.3   195  LYS195      0.0206
     98  CE         1.6400   28.2160  101.7580 C.3   195  LYS195      0.1093
     99  NZ         3.0370   27.7360  101.9540 N.3   195  LYS195     -0.1314
    100  N          2.6710   27.7460   95.9410 N.am  196  THR196     -0.1953
    101  CA         4.0820   27.7020   95.5920 C.3   196  THR196      0.1897
    102  C          4.4520   27.0890   94.2770 C.2   196  THR196      0.2313
    103  O          5.4580   27.4740   93.6640 O.2   196  THR196     -0.2863
    104  CB         4.7720   26.7910   96.6050 C.3   196  THR196      0.1794
    105  OG1        4.3060   25.4610   96.3660 O.3   196  THR196     -0.2208
    106  CG2        4.4100   27.2290   98.0380 C.3   196  THR196      0.0378
    107  N          4.0580   29.4830   91.1850 N.3   199  TYR199     -0.1241
    108  CA         5.1120   30.4380   91.0470 C.3   199  TYR199      0.1605
    109  C          6.4710   29.8340   91.1290 C.2   199  TYR199      0.2264
    110  O          7.3800   30.4180   90.5790 O.2   199  TYR199     -0.2867
    111  CB         4.9690   31.6110   92.0060 C.3   199  TYR199      0.0534
    112  CG         5.7660   31.4350   93.2490 C.ar  199  TYR199     -0.0201
    113  CD1        5.3190   30.6270   94.2800 C.ar  199  TYR199     -0.0009
    114  CD2        6.9800   32.0760   93.3830 C.ar  199  TYR199     -0.0009
    115  CE1        6.0510   30.5080   95.4330 C.ar  199  TYR199      0.0417
    116  CE2        7.7500   31.9500   94.5240 C.ar  199  TYR199      0.0417
    117  CZ         7.2810   31.1580   95.5290 C.ar  199  TYR199      0.1957
    118  OH         8.0480   31.0110   96.6280 O.3   199  TYR199     -0.2866
    119  N          1.9230   24.2040  111.6590 N.3   261  LYS261     -0.1245
    120  CA         2.0270   24.1130  110.2100 C.3   261  LYS261      0.1561
    121  C          1.4140   22.8950  109.5460 C.2   261  LYS261      0.2260
    122  O          1.7560   21.7490  109.8710 O.2   261  LYS261     -0.2867
    123  CB         3.4450   24.3960  109.6690 C.3   261  LYS261      0.0271
    124  CG         4.6060   23.5820  110.2500 C.3   261  LYS261      0.0035
    125  CD         5.8530   23.6500  109.3390 C.3   261  LYS261      0.0206
    126  CE         7.1270   23.0080  109.9270 C.3   261  LYS261      0.1093
    127  NZ         8.3400   23.7160  109.3690 N.3   261  LYS261     -0.1314
@<TRIPOS>BOND
     1   110   109    2
     2   108   109    1
     3   108   107    1
     4   108   111    1
     5   111   112    1
     6   112   114   ar
     7   112   113   ar
     8   114   116   ar
     9    65    63    1
    10   103   102    2
    11    59    60    1
    12   102   101    1
    13   113   115   ar
    14   116   117   ar
    15     1     2    1
    16    63    60    1
    17    63    64    1
    18    60    61    1
    19   115   117   ar
    20   117   118    1
    21   101   100    1
    22   101   104    1
    23     5     2    1
    24     5     6    1
    25     2     3    1
    26   100    93   am
    27    61    62    2
    28     9     7   am
    29   105   104    1
    30    91    92    1
    31   104   106    1
    32    93    94    2
    33    93    92    1
    34     7     8    2
    35     7     6    1
    36    15    14    1
    37    92    95    1
    38     3     4    2
    39    14    11    1
    40    10    11    1
    41    95    96    1
    42    11    12    1
    43    66    67    1
    44    96    97    1
    45    70    67    1
    46    70    71    1
    47    12    16   am
    48    12    13    2
    49    16    17    1
    50    67    68    1
    51    22    21    1
    52    21    23    1
    53    21    20    1
    54    97    98    1
    55    68    69    2
    56    20    17    1
    57    98    99    1
    58    71    72    1
    59    17    18    1
    60    72    73    2
    61    72    74   am
    62    18    19    2
    63    75    76    1
    64    79    76    1
    65    79    80    1
    66    24    25    1
    67    76    77    1
    68    28    25    1
    69    28    29    1
    70    58    56    1
    71    80    82   ar
    72    80    81   ar
    73    55    56    2
    74    55    54    1
    75    56    57    1
    76    54    53    1
    77    25    26    1
    78    30    29   ar
    79    90    88    1
    80    29    31   ar
    81    53    52    1
    82    83    77   am
    83    83    84    1
    84    77    78    2
    85    87    88    1
    86    87    84    1
    87    88    89    1
    88    39    37   ar
    89    84    85    1
    90    26    32   am
    91    26    27    2
    92    32    33    1
    93    51    50    2
    94    52    49    1
    95    50    49    1
    96    37    38   ar
    97    37    36    1
    98    85    86    2
    99    49    48    1
   100    36    33    1
   101    33    34    1
   102    47    45   ar
   103    34    35    2
   104    46    45   ar
   105    45    44    1
   106   125   126    1
   107   125   124    1
   108   127   126    1
   109   121   122    2
   110   121   120    1
   111   123   120    1
   112   123   124    1
   113    44    41    1
   114    40    41    1
   115   120   119    1
   116    41    42    1
   117    42    43    2
