@<TRIPOS>MOLECULE
tmp/1ubzA00.pdb
 122 120 0 0 0
SMALL
GASTEIGER

@<TRIPOS>ATOM
      1  N          6.3940    5.9910   29.1590 N.3    53  ASP53      -0.1239
      2  CA         7.2630    7.1500   29.0360 C.3    53  ASP53       0.1674
      3  C          6.3630    8.2820   28.5540 C.2    53  ASP53       0.2266
      4  O          5.5680    8.1190   27.6110 O.2    53  ASP53      -0.2867
      5  CB         8.4090    6.8810   28.0720 C.3    53  ASP53       0.1410
      6  CG         9.6500    6.3700   28.7780 C.2    53  ASP53       0.3668
      7  OD1       10.6820    6.2430   28.0910 O.co2  53  ASP53      -0.2456
      8  OD2        9.6040    6.1260   30.0150 O.co2  53  ASP53      -0.2456
      9  N          9.9610   12.1120   27.3220 N.3    58  GLN58      -0.1231
     10  CA         9.6470   10.6920   27.4840 C.3    58  GLN58       0.1698
     11  C         10.1740   10.1470   28.8350 C.2    58  GLN58       0.2592
     12  O         10.8990    9.1440   28.9080 O.2    58  GLN58      -0.2718
     13  CB        10.2110    9.9120   26.2880 C.3    58  GLN58       0.0381
     14  CG         9.4360   10.1150   25.0060 C.3    58  GLN58       0.0905
     15  CD         8.1040    9.3960   25.0400 C.2    58  GLN58       0.2608
     16  OE1        8.0610    8.1750   24.9940 O.2    58  GLN58      -0.2717
     17  NE2        7.0220   10.1410   25.1560 N.am   58  GLN58      -0.0878
     18  N          9.7290   10.7780   29.9100 N.am   59  ILE59      -0.1966
     19  CA        10.1500   10.3780   31.2440 C.3    59  ILE59       0.1727
     20  C          9.3000    9.2060   31.7530 C.2    59  ILE59       0.2616
     21  O          8.0930    9.1660   31.5080 O.2    59  ILE59      -0.2715
     22  CB        10.1290   11.5730   32.2160 C.3    59  ILE59       0.0290
     23  CG1       11.1300   12.6430   31.7460 C.3    59  ILE59       0.0022
     24  CG2       10.4650   11.1010   33.6000 C.3    59  ILE59       0.0023
     25  CD1       10.9600   13.9900   32.4460 C.3    59  ILE59       0.0001
     26  N          9.9730    8.2760   32.4390 N.am   60  ASN60      -0.1972
     27  CA         9.4320    7.0180   32.9680 C.3    60  ASN60       0.1688
     28  C          8.5990    7.0410   34.2470 C.2    60  ASN60       0.2292
     29  O          9.0650    7.5000   35.3080 O.2    60  ASN60      -0.2864
     30  CB        10.6040    6.0320   33.1390 C.3    60  ASN60       0.1181
     31  CG        10.1810    4.5630   33.0350 C.2    60  ASN60       0.2629
     32  OD1        9.0870    4.1650   33.4240 O.2    60  ASN60      -0.2716
     33  ND2       11.0780    3.7510   32.5210 N.am   60  ASN60      -0.0877
     34  N         10.0790    5.2280   37.6070 N.3    63  TYR63      -0.1227
     35  CA        10.9990    5.9260   38.4960 C.3    63  TYR63       0.1736
     36  C         10.6340    7.3540   38.8610 C.2    63  TYR63       0.2595
     37  O         10.6710    7.7170   40.0370 O.2    63  TYR63      -0.2718
     38  CB        12.4010    5.9520   37.8860 C.3    63  TYR63       0.0548
     39  CG        12.9300    4.6040   37.4190 C.ar   63  TYR63      -0.0200
     40  CD1       12.7510    4.1940   36.1060 C.ar   63  TYR63      -0.0009
     41  CD2       13.5720    3.7270   38.3000 C.ar   63  TYR63      -0.0009
     42  CE1       13.1770    2.9470   35.6730 C.ar   63  TYR63       0.0417
     43  CE2       14.0070    2.4780   37.8670 C.ar   63  TYR63       0.0417
     44  CZ        13.7950    2.0950   36.5470 C.ar   63  TYR63       0.1957
     45  OH        14.1530    0.8420   36.0890 O.3    63  TYR63      -0.2866
     46  N         10.2400    8.1260   37.8430 N.am   64  TRP64      -0.1976
     47  CA         9.9850    9.5720   37.9540 C.3    64  TRP64       0.1640
     48  C          8.6270   10.2210   38.2010 C.2    64  TRP64       0.2290
     49  O          8.5460   11.1860   38.9500 O.2    64  TRP64      -0.2864
     50  CB        10.6470   10.2520   36.7620 C.3    64  TRP64       0.0576
     51  CG        12.0230    9.7050   36.5120 C.ar   64  TRP64       0.0006
     52  CD1       12.4210    8.8790   35.4920 C.ar   64  TRP64       0.0946
     53  CD2       13.1650    9.8790   37.3560 C.ar   64  TRP64       0.0152
     54  NE1       13.7480    8.5200   35.6640 N.ar   64  TRP64      -0.2442
     55  CE2       14.2220    9.1210   36.8010 C.ar   64  TRP64       0.0810
     56  CE3       13.3820   10.6000   38.5430 C.ar   64  TRP64       0.0012
     57  CZ2       15.4930    9.0580   37.3900 C.ar   64  TRP64       0.0191
     58  CZ3       14.6420   10.5390   39.1330 C.ar   64  TRP64       0.0001
     59  CH2       15.6880    9.7670   38.5520 C.ar   64  TRP64       0.0015
     60  N          8.1630    4.8990   41.9900 N.3    74  VAL74      -0.1245
     61  CA         8.7160    5.6320   43.1330 C.3    74  VAL74       0.1561
     62  C          8.4830    7.1400   43.1270 C.2    74  VAL74       0.2260
     63  O          8.7330    7.8340   44.1290 O.2    74  VAL74      -0.2867
     64  CB        10.2050    5.3420   43.3380 C.3    74  VAL74       0.0252
     65  CG1       10.3650    4.4020   44.5330 C.3    74  VAL74       0.0019
     66  CG2       10.8030    4.7220   42.0900 C.3    74  VAL74       0.0019
     67  N         10.0200    9.8630   41.8660 N.3    76  ALA76      -0.1245
     68  CA        11.1340   10.6790   42.3220 C.3    76  ALA76       0.1562
     69  C         11.0250   12.1600   41.9040 C.2    76  ALA76       0.2260
     70  O         11.7400   13.0040   42.4300 O.2    76  ALA76      -0.2867
     71  CB        12.4640   10.0690   41.8810 C.3    76  ALA76       0.0290
     72  N         16.0860   13.9990   36.9050 N.3    99  VAL99      -0.1245
     73  CA        16.5730   12.8090   36.2200 C.3    99  VAL99       0.1561
     74  C         18.0910   12.8890   35.9840 C.2    99  VAL99       0.2260
     75  O         18.8090   11.9320   36.2540 O.2    99  VAL99      -0.2867
     76  CB        15.8450   12.6320   34.8380 C.3    99  VAL99       0.0252
     77  CG1       16.4540   11.4440   34.0460 C.3    99  VAL99       0.0019
     78  CG2       14.3420   12.4430   35.0380 C.3    99  VAL99       0.0019
     79  N         21.2300   11.9710   38.5610 N.3   102  GLU102     -0.1231
     80  CA        21.4940   10.5810   38.8850 C.3   102  GLU102      0.1684
     81  C         22.9260   10.2690   38.4020 C.2   102  GLU102      0.2434
     82  O         23.4740   10.9890   37.5730 O.2   102  GLU102     -0.2733
     83  CB        20.4950    9.6840   38.1500 C.3   102  GLU102      0.0402
     84  CG        19.0940    9.7070   38.7140 C.3   102  GLU102      0.1161
     85  CD        19.0020    9.0530   40.0880 C.2   102  GLU102      0.3649
     86  OE1       19.3080    7.8440   40.1950 O.co2 102  GLU102     -0.2457
     87  OE2       18.6320    9.7330   41.0620 O.co2 102  GLU102     -0.2457
     88  N         23.5390    9.1820   38.8960 N.am  103  PRO103     -0.2718
     89  CA        24.9020    8.8170   38.4810 C.3   103  PRO103      0.1535
     90  C         25.1670    8.8940   36.9620 C.2   103  PRO103      0.2598
     91  O         26.1620    9.4510   36.5260 O.2   103  PRO103     -0.2715
     92  CB        25.0230    7.3730   38.9720 C.3   103  PRO103      0.0310
     93  CG        24.2200    7.3880   40.2580 C.3   103  PRO103      0.0237
     94  CD        22.9840    8.1870   39.8480 C.3   103  PRO103      0.0939
     95  N         24.2490    8.3570   36.1690 N.am  104  GLN104     -0.1978
     96  CA        24.4140    8.3290   34.7190 C.3   104  GLN104      0.1601
     97  C         24.0570    9.5870   33.9300 C.2   104  GLN104      0.2287
     98  O         24.3160    9.6660   32.7240 O.2   104  GLN104     -0.2864
     99  CB        23.6810    7.1180   34.1280 C.3   104  GLN104      0.0394
    100  CG        22.1650    7.1760   34.1840 C.3   104  GLN104      0.0908
    101  CD        21.5180    5.9740   33.5380 C.2   104  GLN104      0.2608
    102  OE1       22.1800    5.1780   32.8680 O.2   104  GLN104     -0.2717
    103  NE2       20.2230    5.8460   33.7040 N.am  104  GLN104     -0.0878
    104  N         20.4990    8.4350   30.8630 N.3   108  ALA108     -0.1231
    105  CA        19.2100    7.9360   31.3160 C.3   108  ALA108      0.1694
    106  C         18.2610    7.7910   30.1160 C.2   108  ALA108      0.2592
    107  O         17.2370    7.1070   30.1930 O.2   108  ALA108     -0.2718
    108  CB        18.6180    8.9180   32.2910 C.3   108  ALA108      0.0304
    109  N         18.6010    8.4610   29.0200 N.am  109  TRP109     -0.1976
    110  CA        17.8170    8.4120   27.8020 C.3   109  TRP109      0.1640
    111  C         18.6460    7.6790   26.7320 C.2   109  TRP109      0.2290
    112  O         19.5610    8.2780   26.1590 O.2   109  TRP109     -0.2864
    113  CB        17.5510    9.8350   27.3120 C.3   109  TRP109      0.0576
    114  CG        16.5590   10.6560   28.1080 C.ar  109  TRP109      0.0006
    115  CD1       15.1990   10.6750   27.9510 C.ar  109  TRP109      0.0946
    116  CD2       16.8420   11.5900   29.1690 C.ar  109  TRP109      0.0152
    117  NE1       14.6210   11.5570   28.8460 N.ar  109  TRP109     -0.2442
    118  CE2       15.6070   12.1300   29.6020 C.ar  109  TRP109      0.0810
    119  CE3       18.0240   12.0110   29.7880 C.ar  109  TRP109      0.0012
    120  CZ2       15.5160   13.0770   30.6350 C.ar  109  TRP109      0.0191
    121  CZ3       17.9330   12.9600   30.8250 C.ar  109  TRP109      0.0001
    122  CH2       16.6780   13.4780   31.2320 C.ar  109  TRP109      0.0015
@<TRIPOS>BOND
     1    16    15    2
     2    14    15    1
     3    14    13    1
     4    15    17   am
     5   112   111    2
     6    13    10    1
     7   111   110    1
     8   113   110    1
     9   113   114    1
    10     9    10    1
    11    10    11    1
    12     4     3    2
    13   110   109    1
    14   115   114   ar
    15   115   117   ar
    16     5     6    1
    17     5     2    1
    18     7     6   ar
    19   114   116   ar
    20     3     2    1
    21     6     8   ar
    22    11    12    2
    23    11    18   am
    24   117   118   ar
    25   109   106   am
    26     2     1    1
    27   116   118   ar
    28   116   119   ar
    29   118   120   ar
    30   119   121   ar
    31    18    19    1
    32   106   107    2
    33   106   105    1
    34   120   122   ar
    35   121   122   ar
    36   104   105    1
    37    19    20    1
    38    19    22    1
    39   105   108    1
    40    21    20    2
    41    23    22    1
    42    23    25    1
    43    20    26   am
    44    22    24    1
    45    26    27    1
    46    33    31   am
    47    98    97    2
    48   102   101    2
    49    27    30    1
    50    27    28    1
    51    31    30    1
    52    31    32    2
    53   101   103   am
    54   101   100    1
    55    97    96    1
    56    77    76    1
    57    99   100    1
    58    99    96    1
    59    28    29    2
    60    96    95    1
    61    76    78    1
    62    76    73    1
    63    52    54   ar
    64    52    51   ar
    65    54    55   ar
    66    42    40   ar
    67    42    44   ar
    68    74    73    1
    69    74    75    2
    70    45    44    1
    71    40    39   ar
    72    95    90   am
    73    73    72    1
    74    51    50    1
    75    51    53   ar
    76    91    90    2
    77    44    43   ar
    78    50    47    1
    79    55    53   ar
    80    55    57   ar
    81    90    89    1
    82    53    56   ar
    83    57    59   ar
    84    39    38    1
    85    39    41   ar
    86    82    81    2
    87    34    35    1
    88    46    47    1
    89    46    36   am
    90    43    41   ar
    91    38    35    1
    92    47    48    1
    93    83    84    1
    94    83    80    1
    95    48    49    2
    96    81    80    1
    97    81    88   am
    98    89    88    1
    99    89    92    1
   100    35    36    1
   101    56    58   ar
   102    59    58   ar
   103    79    80    1
   104    84    85    1
   105    36    37    2
   106    88    94    1
   107    92    93    1
   108    94    93    1
   109    85    86   ar
   110    85    87   ar
   111    67    68    1
   112    71    68    1
   113    69    68    1
   114    69    70    2
   115    60    61    1
   116    66    64    1
   117    62    61    1
   118    62    63    2
   119    61    64    1
   120    64    65    1
