@<TRIPOS>MOLECULE
tmp/1uc0A00.pdb
 134 131 0 0 0
SMALL
GASTEIGER

@<TRIPOS>ATOM
      1  N          9.7980   17.8940   23.2310 N.3    52  ASP52      -0.1239
      2  CA         8.4190   18.0940   22.7450 C.3    52  ASP52       0.1674
      3  C          8.0850   16.9400   21.8170 C.2    52  ASP52       0.2266
      4  O          8.8770   16.6110   20.9300 O.2    52  ASP52      -0.2867
      5  CB         8.2320   19.3680   21.9210 C.3    52  ASP52       0.1410
      6  CG         8.5520   20.5990   22.6670 C.2    52  ASP52       0.3668
      7  OD1        7.8140   20.9890   23.5920 O.co2  52  ASP52      -0.2456
      8  OD2        9.5720   21.1990   22.2870 O.co2  52  ASP52      -0.2456
      9  N          3.3750   19.0470   19.6120 N.3    57  GLN57      -0.1231
     10  CA         4.6050   19.3040   20.3500 C.3    57  GLN57       0.1698
     11  C          4.4350   19.4880   21.8570 C.2    57  GLN57       0.2592
     12  O          4.7930   20.5380   22.4110 O.2    57  GLN57      -0.2718
     13  CB         5.3030   20.5170   19.7240 C.3    57  GLN57       0.0381
     14  CG         5.9300   20.2150   18.4050 C.3    57  GLN57       0.0905
     15  CD         7.1140   19.2680   18.5420 C.2    57  GLN57       0.2608
     16  OE1        8.2160   19.6860   18.9060 O.2    57  GLN57      -0.2717
     17  NE2        6.8970   17.9890   18.2520 N.am   57  GLN57      -0.0878
     18  N          3.9280   18.4440   22.5070 N.am   58  ILE58      -0.1966
     19  CA         3.6830   18.4520   23.9430 C.3    58  ILE58       0.1727
     20  C          4.9760   18.1330   24.7000 C.2    58  ILE58       0.2616
     21  O          5.7210   17.2140   24.3510 O.2    58  ILE58      -0.2715
     22  CB         2.4870   17.5150   24.2910 C.3    58  ILE58       0.0290
     23  CG1        1.1870   18.1620   23.7800 C.3    58  ILE58       0.0022
     24  CG2        2.4100   17.2130   25.7870 C.3    58  ILE58       0.0023
     25  CD1       -0.0280   17.2220   23.7650 C.3    58  ILE58       0.0001
     26  N          5.2250   18.9490   25.7170 N.am   59  ASN59      -0.1972
     27  CA         6.4170   18.9230   26.5390 C.3    59  ASN59       0.1688
     28  C          6.4540   17.8880   27.6490 C.2    59  ASN59       0.2292
     29  O          5.5770   17.8610   28.5160 O.2    59  ASN59      -0.2864
     30  CB         6.5880   20.3220   27.1260 C.3    59  ASN59       0.1181
     31  CG         7.9800   20.5950   27.6380 C.2    59  ASN59       0.2629
     32  OD1        8.2730   21.7170   28.0150 O.2    59  ASN59      -0.2716
     33  ND2        8.8470   19.6060   27.6330 N.am   59  ASN59      -0.0877
     34  N          8.3890   17.9050   30.1890 N.3    61  ARG61      -0.1231
     35  CA         8.6400   18.5630   31.4720 C.3    61  ARG61       0.1694
     36  C          7.3720   18.5920   32.3220 C.2    61  ARG61       0.2592
     37  O          7.4510   18.5530   33.5580 O.2    61  ARG61      -0.2718
     38  CB         9.1140   20.0080   31.2440 C.3    61  ARG61       0.0321
     39  CG         9.1090   20.9280   32.4900 C.3    61  ARG61       0.0489
     40  CD        10.1430   20.5300   33.5350 C.3    61  ARG61       0.2205
     41  NE        11.4750   20.4430   32.9480 N.pl3  61  ARG61      -0.0865
     42  CZ        12.4720   19.7020   33.4400 C.cat  61  ARG61       0.5346
     43  NH1       12.2990   18.9770   34.5490 N.pl3  61  ARG61       0.1354
     44  NH2       13.6300   19.6360   32.7830 N.pl3  61  ARG61       0.1354
     45  N          6.2060   18.6370   31.6720 N.am   62  TRP62      -0.1962
     46  CA         4.9610   18.6940   32.4130 C.3    62  TRP62       0.1771
     47  C          3.8920   17.6850   32.0840 C.2    62  TRP62       0.2619
     48  O          3.1880   17.2150   32.9760 O.2    62  TRP62      -0.2715
     49  CB         4.2860   20.0510   32.2180 C.3    62  TRP62       0.0590
     50  CG         5.1690   21.2260   32.2760 C.ar   62  TRP62       0.0006
     51  CD1        5.7530   21.8530   31.2250 C.ar   62  TRP62       0.0946
     52  CD2        5.5610   21.9330   33.4430 C.ar   62  TRP62       0.0152
     53  NE1        6.4930   22.9140   31.6650 N.ar   62  TRP62      -0.2442
     54  CE2        6.3950   22.9900   33.0260 C.ar   62  TRP62       0.0810
     55  CE3        5.2860   21.7790   34.8040 C.ar   62  TRP62       0.0012
     56  CZ2        6.9670   23.9010   33.9230 C.ar   62  TRP62       0.0191
     57  CZ3        5.8510   22.6800   35.7020 C.ar   62  TRP62       0.0001
     58  CH2        6.6880   23.7330   35.2540 C.ar   62  TRP62       0.0015
     59  N          3.7670   17.3390   30.8130 N.am   63  TRP63      -0.1974
     60  CA         2.6490   16.5110   30.3890 C.3    63  TRP63       0.1640
     61  C          2.7270   15.0130   30.1630 C.2    63  TRP63       0.2290
     62  O          1.6980   14.3360   30.2110 O.2    63  TRP63      -0.2864
     63  CB         2.0080   17.1720   29.1600 C.3    63  TRP63       0.0576
     64  CG         1.8640   18.6680   29.3130 C.ar   63  TRP63       0.0006
     65  CD1        2.6660   19.6220   28.7610 C.ar   63  TRP63       0.0946
     66  CD2        0.8870   19.3730   30.0980 C.ar   63  TRP63       0.0152
     67  NE1        2.2570   20.8800   29.1570 N.ar   63  TRP63      -0.2442
     68  CE2        1.1700   20.7570   29.9790 C.ar   63  TRP63       0.0810
     69  CE3       -0.2070   18.9750   30.8840 C.ar   63  TRP63       0.0012
     70  CZ2        0.4000   21.7470   30.6240 C.ar   63  TRP63       0.0191
     71  CZ3       -0.9740   19.9720   31.5260 C.ar   63  TRP63       0.0001
     72  CH2       -0.6610   21.3340   31.3880 C.ar   63  TRP63       0.0015
     73  N          6.7010   16.2710   35.2530 N.3    73  ARG73      -0.1245
     74  CA         5.4020   15.8820   35.8160 C.3    73  ARG73       0.1563
     75  C          4.3480   14.9170   35.2550 C.2    73  ARG73       0.2260
     76  O          3.5090   14.4590   36.0160 O.2    73  ARG73      -0.2867
     77  CB         4.6820   17.1230   36.3210 C.3    73  ARG73       0.0307
     78  CG         5.3120   17.6640   37.5600 C.3    73  ARG73       0.0489
     79  CD         4.3110   18.3720   38.4100 C.3    73  ARG73       0.2205
     80  NE         4.2810   19.7970   38.1190 N.pl3  73  ARG73      -0.0865
     81  CZ         3.2230   20.5700   38.3400 C.cat  73  ARG73       0.5346
     82  NH1        2.1110   20.0330   38.8500 N.pl3  73  ARG73       0.1354
     83  NH2        3.2820   21.8750   38.0620 N.pl3  73  ARG73       0.1354
     84  N          1.3940   15.2230   33.6120 N.3    75  LEU75      -0.1245
     85  CA         0.0200   15.5970   33.9570 C.3    75  LEU75       0.1561
     86  C         -1.0540   14.9500   33.0780 C.2    75  LEU75       0.2260
     87  O         -2.2280   14.9290   33.4450 O.2    75  LEU75      -0.2867
     88  CB        -0.1270   17.1160   33.9850 C.3    75  LEU75       0.0270
     89  CG         0.6940   17.7300   35.1260 C.3    75  LEU75       0.0019
     90  CD1        1.0740   19.1710   34.8250 C.3    75  LEU75       0.0001
     91  CD2       -0.0790   17.6020   36.4290 C.3    75  LEU75       0.0001
     92  N         -4.1030   20.8300   28.5450 N.3    98  ILE98      -0.1245
     93  CA        -3.1700   21.9500   28.4220 C.3    98  ILE98       0.1561
     94  C         -3.9130   23.2760   28.2030 C.2    98  ILE98       0.2260
     95  O         -3.7020   24.2330   28.9600 O.2    98  ILE98      -0.2867
     96  CB        -2.1530   21.6960   27.2680 C.3    98  ILE98       0.0252
     97  CG1       -1.3470   20.4350   27.5500 C.3    98  ILE98       0.0019
     98  CG2       -1.2360   22.8860   27.0680 C.3    98  ILE98       0.0019
     99  CD1       -0.4270   20.0740   26.4290 C.3    98  ILE98       0.0001
    100  N         -5.5450   24.7540   31.1570 N.3   101  ASP101     -0.1239
    101  CA        -4.5850   25.0320   32.2210 C.3   101  ASP101      0.1674
    102  C         -4.4170   26.4950   32.6420 C.2   101  ASP101      0.2266
    103  O         -3.4860   26.8310   33.3730 O.2   101  ASP101     -0.2867
    104  CB        -3.2440   24.4230   31.7980 C.3   101  ASP101      0.1410
    105  CG        -2.2130   24.4510   32.8750 C.2   101  ASP101      0.3668
    106  OD1       -2.4840   23.9370   33.9850 O.co2 101  ASP101     -0.2456
    107  OD2       -1.1150   24.9740   32.5900 O.co2 101  ASP101     -0.2456
    108  N         -3.7480   29.2500   30.6600 N.3   103  ASN103     -0.1240
    109  CA        -3.1150   30.1430   29.6790 C.3   103  ASN103      0.1653
    110  C         -3.6160   29.9750   28.2510 C.2   103  ASN103      0.2266
    111  O         -3.1180   30.6290   27.3200 O.2   103  ASN103     -0.2867
    112  CB        -1.5930   30.0210   29.7420 C.3   103  ASN103      0.1155
    113  CG        -1.0580   30.3120   31.1300 C.2   103  ASN103      0.2627
    114  OD1       -0.5670   31.4120   31.4050 O.2   103  ASN103     -0.2716
    115  ND2       -1.1900   29.3390   32.0320 N.am  103  ASN103     -0.0877
    116  N          0.2120   28.3000   25.4610 N.3   107  ALA107     -0.1231
    117  CA         1.1020   27.2060   25.8350 C.3   107  ALA107      0.1694
    118  C          1.8810   26.7610   24.5970 C.2   107  ALA107      0.2592
    119  O          2.9760   26.2150   24.7100 O.2   107  ALA107     -0.2718
    120  CB         0.2930   26.0410   26.4020 C.3   107  ALA107      0.0304
    121  N          1.3250   27.0500   23.4200 N.am  108  TRP108     -0.1976
    122  CA         1.9310   26.7030   22.1320 C.3   108  TRP108      0.1640
    123  C          2.6030   27.9480   21.5670 C.2   108  TRP108      0.2290
    124  O          1.9350   28.8370   21.0750 O.2   108  TRP108     -0.2864
    125  CB         0.8720   26.1460   21.1550 C.3   108  TRP108      0.0576
    126  CG         0.4490   24.7290   21.4820 C.ar  108  TRP108      0.0006
    127  CD1        1.1070   23.5820   21.1440 C.ar  108  TRP108      0.0946
    128  CD2       -0.6730   24.3230   22.2740 C.ar  108  TRP108      0.0152
    129  NE1        0.4730   22.4910   21.6840 N.ar  108  TRP108     -0.2442
    130  CE2       -0.6220   22.9150   22.3840 C.ar  108  TRP108      0.0810
    131  CE3       -1.7170   25.0130   22.9100 C.ar  108  TRP108      0.0012
    132  CZ2       -1.5740   22.1810   23.1030 C.ar  108  TRP108      0.0191
    133  CZ3       -2.6660   24.2790   23.6270 C.ar  108  TRP108      0.0001
    134  CH2       -2.5850   22.8810   23.7140 C.ar  108  TRP108      0.0015
@<TRIPOS>BOND
     1    17    15   am
     2    14    15    1
     3    14    13    1
     4    15    16    2
     5     9    10    1
     6    13    10    1
     7    10    11    1
     8     4     3    2
     9   124   123    2
    10   127   126   ar
    11   127   129   ar
    12   125   126    1
    13   125   122    1
    14   126   128   ar
    15   123   122    1
    16   129   130   ar
    17     3     2    1
    18    11    12    2
    19    11    18   am
    20     5     6    1
    21     5     2    1
    22   122   121    1
    23   128   130   ar
    24   128   131   ar
    25     8     6   ar
    26   130   132   ar
    27    18    19    1
    28     6     7   ar
    29     2     1    1
    30   131   133   ar
    31   132   134   ar
    32   121   118   am
    33   133   134   ar
    34    25    23    1
    35    23    22    1
    36    19    22    1
    37    19    20    1
    38    22    24    1
    39    21    20    2
    40   118   119    2
    41   118   117    1
    42    20    26   am
    43   116   117    1
    44    26    27    1
    45   117   120    1
    46    99    97    1
    47    27    30    1
    48    27    28    1
    49    98    96    1
    50    30    31    1
    51    96    97    1
    52    96    93    1
    53   111   110    2
    54    33    31   am
    55    31    32    2
    56    28    29    2
    57    94    93    1
    58    94    95    2
    59   110   109    1
    60    93    92    1
    61    65    67   ar
    62    65    64   ar
    63    67    68   ar
    64    63    64    1
    65    63    60    1
    66    64    66   ar
    67   109   112    1
    68   109   108    1
    69   112   113    1
    70    68    66   ar
    71    68    70   ar
    72    66    69   ar
    73    61    62    2
    74    61    60    1
    75    34    35    1
    76    60    59    1
    77    70    72   ar
    78    59    47   am
    79    69    71   ar
    80   113   114    2
    81   113   115   am
    82   100   101    1
    83    51    53   ar
    84    51    50   ar
    85    38    35    1
    86    38    39    1
    87    72    71   ar
    88    35    36    1
    89    53    54   ar
    90    45    36   am
    91    45    46    1
    92   104   101    1
    93   104   105    1
    94    47    46    1
    95    47    48    2
    96    49    50    1
    97    49    46    1
    98   101   102    1
    99    50    52   ar
   100    36    37    2
   101    39    40    1
   102   107   105   ar
   103   102   103    2
   104    44    42    1
   105   105   106   ar
   106    41    42    2
   107    41    40    1
   108    54    52   ar
   109    54    56   ar
   110    86    87    2
   111    86    85    1
   112    42    43    1
   113    52    55   ar
   114    84    85    1
   115    56    58   ar
   116    85    88    1
   117    88    89    1
   118    55    57   ar
   119    90    89    1
   120    89    91    1
   121    73    74    1
   122    58    57   ar
   123    75    74    1
   124    75    76    2
   125    74    77    1
   126    77    78    1
   127    78    79    1
   128    83    81    1
   129    80    81    2
   130    80    79    1
   131    81    82    1
