@<TRIPOS>MOLECULE
tmp/1uc5D00.pdb
 182 171 0 0 0
SMALL
GASTEIGER

@<TRIPOS>ATOM
      1  N         80.8280   -6.4040  215.7660 N.3   172  THR172     -0.1203
      2  CA        79.6640   -6.8290  216.5200 C.3   172  THR172      0.1994
      3  C         79.7840   -8.3200  216.7640 C.2   172  THR172      0.2618
      4  O         80.7090   -8.9670  216.2690 O.2   172  THR172     -0.2717
      5  CB        78.3380   -6.5270  215.7920 C.3   172  THR172      0.1784
      6  OG1       77.2440   -6.8240  216.6720 O.3   172  THR172     -0.2211
      7  CG2       78.2080   -7.3570  214.5380 C.3   172  THR172      0.0376
      8  N         78.8370   -8.8750  217.5050 N.am  173  VAL173     -0.1965
      9  CA        78.9010  -10.2820  217.8560 C.3   173  VAL173      0.1727
     10  C         77.7870  -11.1930  217.3660 C.2   173  VAL173      0.2616
     11  O         76.6290  -10.7810  217.2280 O.2   173  VAL173     -0.2715
     12  CB        78.9660  -10.4190  219.3760 C.3   173  VAL173      0.0290
     13  CG1       80.2430   -9.7730  219.8990 C.3   173  VAL173      0.0023
     14  CG2       77.7220   -9.7600  219.9940 C.3   173  VAL173      0.0023
     15  N         78.1710  -12.4440  217.1200 N.am  174  ALA174     -0.1977
     16  CA        77.2470  -13.4910  216.6980 C.3   174  ALA174      0.1597
     17  C         76.6570  -13.9810  218.0240 C.2   174  ALA174      0.2287
     18  O         75.4520  -14.2310  218.1460 O.2   174  ALA174     -0.2864
     19  CB        78.0150  -14.6100  216.0010 C.3   174  ALA174      0.0319
     20  N         76.5450  -12.6400  221.7630 N.3   176  ALA176     -0.1245
     21  CA        76.7210  -11.4880  222.6360 C.3   176  ALA176      0.1562
     22  C         77.8790  -11.5870  223.6320 C.2   176  ALA176      0.2260
     23  O         78.7770  -10.7410  223.6380 O.2   176  ALA176     -0.2867
     24  CB        75.4210  -11.2050  223.3720 C.3   176  ALA176      0.0290
     25  N         78.9550   -2.7050  218.2660 N.3   202  SER202     -0.1202
     26  CA        77.5010   -2.5590  218.2940 C.3   202  SER202      0.2020
     27  C         76.7290   -3.6190  219.0580 C.2   202  SER202      0.2619
     28  O         76.5820   -4.7500  218.5980 O.2   202  SER202     -0.2717
     29  CB        76.9760   -2.4750  216.8660 C.3   202  SER202      0.2103
     30  OG        77.5610   -1.3710  216.2060 O.3   202  SER202     -0.2182
     31  N         76.2070   -3.2310  220.2180 N.am  203  LEU203     -0.1965
     32  CA        75.4520   -4.1440  221.0730 C.3   203  LEU203      0.1728
     33  C         74.1980   -3.4560  221.6160 C.2   203  LEU203      0.2616
     34  O         73.8740   -2.3350  221.2240 O.2   203  LEU203     -0.2715
     35  CB        76.3300   -4.5810  222.2530 C.3   203  LEU203      0.0311
     36  CG        77.8350   -4.7690  222.0210 C.3   203  LEU203      0.0022
     37  CD1       78.5470   -4.8820  223.3650 C.3   203  LEU203      0.0001
     38  CD2       78.0910   -5.9940  221.1590 C.3   203  LEU203      0.0001
     39  N         73.4940   -4.1500  222.5080 N.am  204  GLU204     -0.1963
     40  CA        72.3050   -3.6170  223.1690 C.3   204  GLU204      0.1733
     41  C         72.7820   -2.3420  223.8870 C.2   204  GLU204      0.2616
     42  O         73.8820   -2.3200  224.4420 O.2   204  GLU204     -0.2715
     43  CB        71.7790   -4.6670  224.1590 C.3   204  GLU204      0.0429
     44  CG        70.5280   -4.3050  224.9490 C.3   204  GLU204      0.1163
     45  CD        70.8230   -3.4610  226.1720 C.2   204  GLU204      0.3649
     46  OE1       71.7930   -3.7730  226.8880 O.co2 204  GLU204     -0.2457
     47  OE2       70.0830   -2.4920  226.4290 O.co2 204  GLU204     -0.2457
     48  N         71.9660   -1.2900  223.8620 N.am  205  GLU205     -0.1977
     49  CA        72.3150    0.0020  224.4610 C.3   205  GLU205      0.1602
     50  C         73.0880   -0.0060  225.7780 C.2   205  GLU205      0.2287
     51  O         74.2370    0.4390  225.8390 O.2   205  GLU205     -0.2864
     52  CB        71.0580    0.8600  224.6470 C.3   205  GLU205      0.0415
     53  CG        70.3060    1.1960  223.3690 C.3   205  GLU205      0.1163
     54  CD        71.2080    1.7140  222.2500 C.2   205  GLU205      0.3649
     55  OE1       72.3700    2.1020  222.5190 O.co2 205  GLU205     -0.2457
     56  OE2       70.7390    1.7420  221.0910 O.co2 205  GLU205     -0.2457
     57  N         75.5750    2.8790  216.7140 N.3   222  THR222     -0.1218
     58  CA        74.2400    2.2920  216.6720 C.3   222  THR222      0.1862
     59  C         73.2980    2.6850  217.8130 C.2   222  THR222      0.2287
     60  O         72.5130    1.8620  218.2890 O.2   222  THR222     -0.2866
     61  CB        74.3140    0.7390  216.5820 C.3   222  THR222      0.1770
     62  OG1       75.0700    0.2120  217.6810 O.3   222  THR222     -0.2211
     63  CG2       74.9750    0.3220  215.2850 C.3   222  THR222      0.0375
     64  N         70.3390    3.8570  218.4190 N.3   224  SER224     -0.1217
     65  CA        69.0890    4.0150  217.6780 C.3   224  SER224      0.1889
     66  C         67.9930    4.9830  218.1200 C.2   224  SER224      0.2288
     67  O         67.8220    5.2740  219.2990 O.2   224  SER224     -0.2866
     68  CB        68.4580    2.6320  217.4860 C.3   224  SER224      0.2089
     69  OG        68.3210    1.9630  218.7260 O.3   224  SER224     -0.2183
     70  N         63.8230    6.1550  216.4330 N.3   226  TYR226     -0.1241
     71  CA        62.8160    5.7390  215.4550 C.3   226  TYR226      0.1605
     72  C         61.7610    6.7870  215.1040 C.2   226  TYR226      0.2264
     73  O         61.4880    7.6980  215.8890 O.2   226  TYR226     -0.2867
     74  CB        62.1430    4.4700  215.9550 C.3   226  TYR226      0.0534
     75  CG        63.1230    3.3640  216.2680 C.ar  226  TYR226     -0.0201
     76  CD1       63.3200    2.3070  215.3800 C.ar  226  TYR226     -0.0009
     77  CD2       63.8610    3.3740  217.4580 C.ar  226  TYR226     -0.0009
     78  CE1       64.2260    1.2800  215.6670 C.ar  226  TYR226      0.0417
     79  CE2       64.7700    2.3580  217.7530 C.ar  226  TYR226      0.0417
     80  CZ        64.9460    1.3150  216.8550 C.ar  226  TYR226      0.1957
     81  OH        65.8360    0.3050  217.1450 O.3   226  TYR226     -0.2866
     82  N         59.1470   -0.3190  220.9300 N.3   234  ASP234     -0.1225
     83  CA        59.6430   -1.6760  220.7370 C.3   234  ASP234      0.1805
     84  C         61.1560   -1.6140  220.6490 C.2   234  ASP234      0.2598
     85  O         61.8350   -2.6280  220.7900 O.2   234  ASP234     -0.2718
     86  CB        59.0980   -2.2840  219.4480 C.3   234  ASP234      0.1424
     87  CG        57.9710   -3.2390  219.7020 C.2   234  ASP234      0.3668
     88  OD1       58.0890   -4.0170  220.6650 O.co2 234  ASP234     -0.2456
     89  OD2       56.9800   -3.2260  218.9460 O.co2 234  ASP234     -0.2456
     90  N         61.6710   -0.4140  220.3890 N.am  235  GLY235     -0.1957
     91  CA        63.1050   -0.2210  220.3010 C.3   235  GLY235      0.1869
     92  C         63.6510   -0.1560  221.7140 C.2   235  GLY235      0.2309
     93  O         64.8620   -0.2340  221.9340 O.2   235  GLY235     -0.2863
     94  N         71.6300    6.2540  215.1560 N.3   259  THR259     -0.1203
     95  CA        71.4550    5.4720  213.9470 C.3   259  THR259      0.1994
     96  C         69.9650    5.3770  213.7120 C.2   259  THR259      0.2618
     97  O         69.1860    5.1700  214.6440 O.2   259  THR259     -0.2717
     98  CB        72.0450    4.0510  214.0540 C.3   259  THR259      0.1784
     99  OG1       73.4730    4.1280  213.9670 O.3   259  THR259     -0.2211
    100  CG2       71.5300    3.1680  212.9090 C.3   259  THR259      0.0376
    101  N         69.5760    5.5630  212.4570 N.am  260  SER260     -0.1951
    102  CA        68.1820    5.4970  212.0500 C.3   260  SER260      0.1924
    103  C         68.1630    4.8930  210.6550 C.2   260  SER260      0.2314
    104  O         68.9310    3.9780  210.3650 O.2   260  SER260     -0.2863
    105  CB        67.5630    6.8980  212.0560 C.3   260  SER260      0.2116
    106  OG        68.4190    7.8320  211.4220 O.3   260  SER260     -0.2180
    107  N         62.6840    1.3510  208.7220 N.3   264  SER264     -0.1217
    108  CA        62.6360    0.6530  210.0040 C.3   264  SER264      0.1889
    109  C         61.2350    0.5970  210.5990 C.2   264  SER264      0.2288
    110  O         60.8280   -0.4500  211.1130 O.2   264  SER264     -0.2866
    111  CB        63.6130    1.2730  211.0220 C.3   264  SER264      0.2089
    112  OG        63.2740    2.6050  211.3560 O.3   264  SER264     -0.2183
    113  N         59.4460   -2.0540  208.8210 N.3   267  GLN267     -0.1231
    114  CA        60.0040   -3.3450  209.2110 C.3   267  GLN267      0.1698
    115  C         59.5100   -3.7590  210.5920 C.2   267  GLN267      0.2592
    116  O         59.3800   -4.9520  210.8790 O.2   267  GLN267     -0.2718
    117  CB        61.5390   -3.2770  209.2160 C.3   267  GLN267      0.0381
    118  CG        62.2260   -4.4560  209.8900 C.3   267  GLN267      0.0905
    119  CD        62.1480   -5.7400  209.0840 C.2   267  GLN267      0.2608
    120  OE1       62.9590   -5.9760  208.1920 O.2   267  GLN267     -0.2717
    121  NE2       61.1640   -6.5750  209.3940 N.am  267  GLN267     -0.0878
    122  N         59.2370   -2.7780  211.4510 N.am  268  MET268     -0.1979
    123  CA        58.7670   -3.0850  212.7970 C.3   268  MET268      0.1605
    124  C         57.2570   -2.9450  213.0340 C.2   268  MET268      0.2287
    125  O         56.8110   -2.8290  214.1700 O.2   268  MET268     -0.2864
    126  CB        59.5600   -2.2710  213.8240 C.3   268  MET268      0.0413
    127  CG        60.9380   -2.8470  214.0960 C.3   268  MET268      0.0598
    128  SD        62.0680   -1.7380  214.9840 S.3   268  MET268     -0.1393
    129  CE        61.6750   -2.0940  216.6950 C.3   268  MET268      0.0692
    130  N         70.4420   -0.7910  207.9190 N.3   301  SER301     -0.1202
    131  CA        70.0610   -2.2010  207.9610 C.3   301  SER301      0.2020
    132  C         68.6910   -2.6090  207.4200 C.2   301  SER301      0.2619
    133  O         68.4240   -3.8040  207.2530 O.2   301  SER301     -0.2717
    134  CB        70.2200   -2.7200  209.3850 C.3   301  SER301      0.2103
    135  OG        71.5770   -2.6330  209.7890 O.3   301  SER301     -0.2182
    136  N         67.8240   -1.6410  207.1450 N.am  302  CYS302     -0.1969
    137  CA        66.5020   -1.9590  206.6100 C.3   302  CYS302      0.1712
    138  C         66.4050   -1.5700  205.1360 C.2   302  CYS302      0.2296
    139  O         65.3100   -1.3360  204.6180 O.2   302  CYS302     -0.2864
    140  CB        65.4250   -1.2410  207.4200 C.3   302  CYS302      0.0983
    141  SG        65.3750   -1.7630  209.1490 S.3   302  CYS302     -0.0798
    142  N         74.8950   -2.2470  203.9040 N.3   336  GLN336     -0.1245
    143  CA        74.0330   -3.4140  203.9990 C.3   336  GLN336      0.1566
    144  C         73.5440   -3.9550  202.6630 C.2   336  GLN336      0.2260
    145  O         73.2090   -3.1980  201.7520 O.2   336  GLN336     -0.2867
    146  CB        72.8510   -3.0690  204.9000 C.3   336  GLN336      0.0367
    147  CG        73.2800   -2.6440  206.2840 C.3   336  GLN336      0.0905
    148  CD        73.5140   -3.8230  207.1980 C.2   336  GLN336      0.2608
    149  OE1       72.5940   -4.2880  207.8760 O.2   336  GLN336     -0.2717
    150  NE2       74.7440   -4.3300  207.2130 N.am  336  GLN336     -0.0878
    151  N         80.5360  -11.1650  207.4230 N.3   372  ASN372     -0.1225
    152  CA        79.8650   -9.9440  207.8600 C.3   372  ASN372      0.1785
    153  C         78.6840  -10.2320  208.7730 C.2   372  ASN372      0.2597
    154  O         77.6520  -10.7280  208.3220 O.2   372  ASN372     -0.2718
    155  CB        79.4000   -9.1400  206.6500 C.3   372  ASN372      0.1169
    156  CG        78.8900   -7.7690  207.0330 C.2   372  ASN372      0.2627
    157  OD1       77.7590   -7.6230  207.4960 O.2   372  ASN372     -0.2716
    158  ND2       79.7330   -6.7560  206.8640 N.am  372  ASN372     -0.0877
    159  N         78.8360   -9.9010  210.0540 N.am  373  MET373     -0.1965
    160  CA        77.7880  -10.1560  211.0400 C.3   373  MET373      0.1736
    161  C         76.6350   -9.1460  211.0900 C.2   373  MET373      0.2616
    162  O         75.8380   -9.1260  212.0320 O.2   373  MET373     -0.2715
    163  CB        78.4090  -10.3380  212.4310 C.3   373  MET373      0.0427
    164  CG        79.1480  -11.6620  212.5980 C.3   373  MET373      0.0599
    165  SD        78.1240  -13.0900  212.1390 S.3   373  MET373     -0.1393
    166  CE        76.7250  -12.8590  213.2360 C.3   373  MET373      0.0692
    167  N         76.5510   -8.3210  210.0590 N.am  374  PHE374     -0.1960
    168  CA        75.4820   -7.3450  209.9190 C.3   374  PHE374      0.1771
    169  C         74.6520   -7.8510  208.7430 C.2   374  PHE374      0.2619
    170  O         73.9650   -7.0890  208.0670 O.2   374  PHE374     -0.2715
    171  CB        76.0610   -5.9630  209.6080 C.3   374  PHE374      0.0574
    172  CG        76.7350   -5.3110  210.7810 C.ar  374  PHE374     -0.0200
    173  CD1       75.9820   -4.7270  211.7930 C.ar  374  PHE374     -0.0042
    174  CD2       78.1200   -5.2730  210.8680 C.ar  374  PHE374     -0.0042
    175  CE1       76.5980   -4.1090  212.8760 C.ar  374  PHE374     -0.0003
    176  CE2       78.7530   -4.6580  211.9490 C.ar  374  PHE374     -0.0003
    177  CZ        77.9880   -4.0740  212.9540 C.ar  374  PHE374     -0.0000
    178  N         74.7520   -9.1560  208.5010 N.am  375  ALA375     -0.1977
    179  CA        74.0280   -9.8250  207.4280 C.3   375  ALA375      0.1597
    180  C         74.4570   -9.3910  206.0290 C.2   375  ALA375      0.2287
    181  O         73.6700   -9.4900  205.0870 O.2   375  ALA375     -0.2864
    182  CB        72.5270   -9.6100  207.6030 C.3   375  ALA375      0.0319
@<TRIPOS>BOND
     1   145   144    2
     2   144   143    1
     3   142   143    1
     4   143   146    1
     5   139   138    2
     6   146   147    1
     7   181   180    2
     8   138   137    1
     9   180   179    1
    10   147   148    1
    11   137   136    1
    12   137   140    1
    13   155   156    1
    14   155   152    1
    15   158   156   am
    16   156   157    2
    17   136   132   am
    18   148   150   am
    19   148   149    2
    20   133   132    2
    21   140   141    1
    22   132   131    1
    23   151   152    1
    24   179   182    1
    25   179   178    1
    26   152   153    1
    27   130   131    1
    28   131   134    1
    29   170   169    2
    30   120   119    2
    31   154   153    2
    32   178   169   am
    33   107   108    1
    34   169   168    1
    35   153   159   am
    36   113   114    1
    37   119   121   am
    38   119   118    1
    39   114   117    1
    40   114   115    1
    41   117   118    1
    42   134   135    1
    43   171   168    1
    44   171   172    1
    45   168   167    1
    46   108   109    1
    47   108   111    1
    48   159   160    1
    49   167   161   am
    50   104   103    2
    51   115   116    2
    52   115   122   am
    53   109   110    2
    54   103   102    1
    55   172   174   ar
    56   172   173   ar
    57   174   176   ar
    58   111   112    1
    59   160   161    1
    60   160   163    1
    61   161   162    2
    62   106   105    1
    63   122   123    1
    64   173   175   ar
    65   176   177   ar
    66   102   105    1
    67   102   101    1
    68   165   164    1
    69   165   166    1
    70   163   164    1
    71   101    96   am
    72   123   124    1
    73   123   126    1
    74   175   177   ar
    75   100    98    1
    76   124   125    2
    77    96    95    1
    78    96    97    2
    79   126   127    1
    80    95    98    1
    81    95    94    1
    82    99    98    1
    83   127   128    1
    84     7     5    1
    85   128   129    1
    86    72    71    1
    87    72    73    2
    88    63    61    1
    89    76    78   ar
    90    76    75   ar
    91    71    74    1
    92    71    70    1
    93    78    80   ar
    94     1     2    1
    95     5     2    1
    96     5     6    1
    97    74    75    1
    98    19    16    1
    99    30    29    1
   100    75    77   ar
   101     4     3    2
   102     2     3    1
   103    61    58    1
   104    61    62    1
   105    58    57    1
   106    58    59    1
   107    16    15    1
   108    16    17    1
   109     3     8   am
   110    80    81    1
   111    80    79   ar
   112    29    26    1
   113    15    10   am
   114    11    10    2
   115    10     9    1
   116    77    79   ar
   117    68    65    1
   118    68    69    1
   119     8     9    1
   120    65    66    1
   121    65    64    1
   122    59    60    2
   123     9    12    1
   124    17    18    2
   125    66    67    2
   126    25    26    1
   127    26    27    1
   128    28    27    2
   129    89    87   ar
   130    27    31   am
   131    12    13    1
   132    12    14    1
   133    86    87    1
   134    86    83    1
   135    87    88   ar
   136    31    32    1
   137    91    90    1
   138    91    92    1
   139    90    84   am
   140    84    83    1
   141    84    85    2
   142    83    82    1
   143    32    33    1
   144    32    35    1
   145    56    54   ar
   146    38    36    1
   147    34    33    2
   148    33    39   am
   149    92    93    2
   150    20    21    1
   151    36    35    1
   152    36    37    1
   153    54    55   ar
   154    54    53    1
   155    39    40    1
   156    21    24    1
   157    21    22    1
   158    40    41    1
   159    40    43    1
   160    53    52    1
   161    22    23    2
   162    48    41   am
   163    48    49    1
   164    41    42    2
   165    43    44    1
   166    49    52    1
   167    49    50    1
   168    44    45    1
   169    50    51    2
   170    45    47   ar
   171    45    46   ar
