@<TRIPOS>MOLECULE
tmp/1uc9A00.pdb
 145 135 0 0 0
SMALL
GASTEIGER

@<TRIPOS>ATOM
      1  N        -15.2930   -7.0530   26.8320 N.3    89  LYS89      -0.1245
      2  CA       -15.4650   -6.3100   28.0770 C.3    89  LYS89       0.1561
      3  C        -16.8810   -6.2740   28.6500 C.2    89  LYS89       0.2260
      4  O        -17.0530   -6.2600   29.8840 O.2    89  LYS89      -0.2867
      5  CB       -14.9150   -4.8910   27.9370 C.3    89  LYS89       0.0271
      6  CG       -13.4130   -4.8510   27.7100 C.3    89  LYS89       0.0035
      7  CD       -12.8610   -3.4390   27.8370 C.3    89  LYS89       0.0206
      8  CE       -11.4100   -3.3650   27.3730 C.3    89  LYS89       0.1093
      9  NZ       -11.2860   -3.6130   25.9010 N.3    89  LYS89      -0.1314
     10  N        -14.9710    7.4940   31.4910 N.3   127  VAL127     -0.1245
     11  CA       -14.1080    6.7050   30.6280 C.3   127  VAL127      0.1561
     12  C        -14.8900    5.9250   29.5740 C.2   127  VAL127      0.2260
     13  O        -16.0140    5.4780   29.8100 O.2   127  VAL127     -0.2867
     14  CB       -13.2500    5.7180   31.4660 C.3   127  VAL127      0.0252
     15  CG1      -12.4120    4.8260   30.5510 C.3   127  VAL127      0.0019
     16  CG2      -12.3420    6.5030   32.4110 C.3   127  VAL127      0.0019
     17  N        -14.2410    2.8000   26.6150 N.3   129  LYS129     -0.1245
     18  CA       -13.3170    1.7750   26.1240 C.3   129  LYS129      0.1561
     19  C        -13.9150    0.9810   24.9640 C.2   129  LYS129      0.2260
     20  O        -15.1320    0.9000   24.8170 O.2   129  LYS129     -0.2867
     21  CB       -12.9750    0.7860   27.2440 C.3   129  LYS129      0.0271
     22  CG       -12.4810    1.3890   28.5440 C.3   129  LYS129      0.0035
     23  CD       -12.2200    0.2770   29.5670 C.3   129  LYS129      0.0206
     24  CE       -11.7420    0.8160   30.9030 C.3   129  LYS129      0.1093
     25  NZ       -11.5510   -0.2820   31.8970 N.3   129  LYS129     -0.1314
     26  N        -17.6840    3.7480   31.5720 N.3   143  GLN143     -0.1231
     27  CA       -17.2780    3.4420   32.9460 C.3   143  GLN143      0.1698
     28  C        -16.9490    4.7190   33.7420 C.2   143  GLN143      0.2592
     29  O        -16.4730    5.7100   33.1830 O.2   143  GLN143     -0.2718
     30  CB       -16.0550    2.5080   32.8900 C.3   143  GLN143      0.0381
     31  CG       -15.7980    1.6530   34.1140 C.3   143  GLN143      0.0905
     32  CD       -14.7770    0.5370   33.8470 C.2   143  GLN143      0.2608
     33  OE1      -13.6130    0.7970   33.5300 O.2   143  GLN143     -0.2717
     34  NE2      -15.2200   -0.7110   33.9690 N.am  143  GLN143     -0.0878
     35  N        -17.2050    4.6880   35.0490 N.am  144  GLU144     -0.1966
     36  CA       -16.9150    5.8310   35.9220 C.3   144  GLU144      0.1733
     37  C        -15.4000    6.0200   36.0430 C.2   144  GLU144      0.2616
     38  O        -14.6350    5.0710   35.8620 O.2   144  GLU144     -0.2715
     39  CB       -17.4800    5.5900   37.3280 C.3   144  GLU144      0.0429
     40  CG       -16.6570    4.5720   38.1270 C.3   144  GLU144      0.1163
     41  CD       -17.0960    4.4260   39.5720 C.2   144  GLU144      0.3649
     42  OE1      -17.2170    5.4540   40.2720 O.co2 144  GLU144     -0.2457
     43  OE2      -17.3050    3.2770   40.0150 O.co2 144  GLU144     -0.2457
     44  N        -14.9680    7.2410   36.3440 N.am  145  TYR145     -0.1960
     45  CA       -13.5410    7.5020   36.5210 C.3   145  TYR145      0.1771
     46  C        -13.2060    7.1850   37.9810 C.2   145  TYR145      0.2619
     47  O        -13.7680    7.7770   38.9010 O.2   145  TYR145     -0.2715
     48  CB       -13.1990    8.9600   36.2200 C.3   145  TYR145      0.0574
     49  CG       -11.7090    9.2060   36.2010 C.ar  145  TYR145     -0.0198
     50  CD1      -10.9240    8.7650   35.1360 C.ar  145  TYR145     -0.0009
     51  CD2      -11.0720    9.8310   37.2740 C.ar  145  TYR145     -0.0009
     52  CE1       -9.5440    8.9390   35.1400 C.ar  145  TYR145      0.0417
     53  CE2       -9.6910   10.0070   37.2900 C.ar  145  TYR145      0.0417
     54  CZ        -8.9340    9.5590   36.2210 C.ar  145  TYR145      0.1957
     55  OH        -7.5660    9.7260   36.2390 O.3   145  TYR145     -0.2866
     56  N        -12.2890    6.2490   38.1860 N.am  146  VAL146     -0.1977
     57  CA       -11.9150    5.8200   39.5270 C.3   146  VAL146      0.1596
     58  C        -10.6650    6.5010   40.0940 C.2   146  VAL146      0.2287
     59  O         -9.6420    6.6060   39.4190 O.2   146  VAL146     -0.2864
     60  CB       -11.6880    4.2760   39.5530 C.3   146  VAL146      0.0276
     61  CG1      -11.5560    3.7780   40.9880 C.3   146  VAL146      0.0022
     62  CG2      -12.8340    3.5680   38.8480 C.3   146  VAL146      0.0022
     63  N         -7.5560    6.3720   42.4160 N.3   148  LYS148     -0.1245
     64  CA        -6.7570    5.2650   42.9350 C.3   148  LYS148      0.1561
     65  C         -5.5830    5.5870   43.8780 C.2   148  LYS148      0.2260
     66  O         -4.5020    5.9840   43.4330 O.2   148  LYS148     -0.2867
     67  CB        -6.2420    4.4420   41.7560 C.3   148  LYS148      0.0271
     68  CG        -7.3370    3.9940   40.8030 C.3   148  LYS148      0.0035
     69  CD        -6.7560    3.5380   39.4780 C.3   148  LYS148      0.0206
     70  CE        -6.0360    4.6820   38.7810 C.3   148  LYS148      0.1093
     71  NZ        -5.3040    4.2320   37.5680 N.3   148  LYS148     -0.1314
     72  N         -2.0550   -0.1910   40.2630 N.3   152  ASP152     -0.1239
     73  CA        -2.7990   -1.2910   39.6490 C.3   152  ASP152      0.1674
     74  C         -2.0440   -2.5980   39.8730 C.2   152  ASP152      0.2266
     75  O         -0.8170   -2.6460   39.7640 O.2   152  ASP152     -0.2867
     76  CB        -2.9730   -1.0840   38.1380 C.3   152  ASP152      0.1410
     77  CG        -3.9160    0.0600   37.7970 C.2   152  ASP152      0.3668
     78  OD1       -4.6710    0.5210   38.6790 O.co2 152  ASP152     -0.2456
     79  OD2       -3.9080    0.4930   36.6280 O.co2 152  ASP152     -0.2456
     80  N         -1.6600   -6.8560   38.9870 N.3   154  ARG154     -0.1245
     81  CA        -1.9430   -7.9210   38.0240 C.3   154  ARG154      0.1563
     82  C         -1.6380   -9.2740   38.6560 C.2   154  ARG154      0.2260
     83  O         -0.5030   -9.5390   39.0380 O.2   154  ARG154     -0.2867
     84  CB        -1.1210   -7.7700   36.7470 C.3   154  ARG154      0.0307
     85  CG        -1.2180   -9.0080   35.8720 C.3   154  ARG154      0.0489
     86  CD        -0.6290   -8.7980   34.4930 C.3   154  ARG154      0.2205
     87  NE        -1.4600   -7.9270   33.6700 N.pl3 154  ARG154     -0.0865
     88  CZ        -1.2270   -7.6770   32.3840 C.cat 154  ARG154      0.5346
     89  NH1       -0.1890   -8.2370   31.7770 N.pl3 154  ARG154      0.1354
     90  NH2       -2.0260   -6.8620   31.7030 N.pl3 154  ARG154      0.1354
     91  N          1.7800   -2.9200   38.1720 N.3   168  ARG168     -0.1245
     92  CA         1.9810   -2.4730   36.7990 C.3   168  ARG168      0.1563
     93  C          2.4900   -1.0380   36.7500 C.2   168  ARG168      0.2260
     94  O          2.2420   -0.2550   37.6670 O.2   168  ARG168     -0.2867
     95  CB         0.6730   -2.5910   36.0170 C.3   168  ARG168      0.0307
     96  CG         0.0370   -3.9670   36.0950 C.3   168  ARG168      0.0489
     97  CD        -1.1240   -4.0750   35.1340 C.3   168  ARG168      0.2205
     98  NE        -0.6730   -3.9240   33.7550 N.pl3 168  ARG168     -0.0865
     99  CZ        -1.4870   -3.7930   32.7130 C.cat 168  ARG168      0.5346
    100  NH1       -2.8000   -3.7960   32.8920 N.pl3 168  ARG168      0.1354
    101  NH2       -0.9870   -3.6510   31.4940 N.pl3 168  ARG168      0.1354
    102  N         -6.5820   -8.0810   36.3510 N.3   197  ASP197     -0.1239
    103  CA        -6.0520   -6.7500   36.6480 C.3   197  ASP197      0.1674
    104  C         -6.9890   -6.0570   37.6410 C.2   197  ASP197      0.2266
    105  O         -8.2020   -6.0030   37.4200 O.2   197  ASP197     -0.2867
    106  CB        -5.9300   -5.9140   35.3710 C.3   197  ASP197      0.1410
    107  CG        -4.9330   -6.4980   34.3730 C.2   197  ASP197      0.3668
    108  OD1       -4.0070   -7.2190   34.7970 O.co2 197  ASP197     -0.2456
    109  OD2       -5.0610   -6.2200   33.1580 O.co2 197  ASP197     -0.2456
    110  N         -7.8150   -2.6780   40.5780 N.3   199  PHE199     -0.1241
    111  CA        -7.6220   -1.2780   40.9520 C.3   199  PHE199      0.1605
    112  C         -7.6630   -1.2040   42.4700 C.2   199  PHE199      0.2264
    113  O         -8.5120   -1.8370   43.0970 O.2   199  PHE199     -0.2867
    114  CB        -8.7700   -0.3850   40.4490 C.3   199  PHE199      0.0534
    115  CG        -8.7560   -0.1230   38.9720 C.ar  199  PHE199     -0.0203
    116  CD1       -9.9260    0.2560   38.3220 C.ar  199  PHE199     -0.0042
    117  CD2       -7.5900   -0.2510   38.2290 C.ar  199  PHE199     -0.0042
    118  CE1       -9.9360    0.5020   36.9520 C.ar  199  PHE199     -0.0003
    119  CE2       -7.5940   -0.0070   36.8580 C.ar  199  PHE199     -0.0003
    120  CZ        -8.7740    0.3710   36.2220 C.ar  199  PHE199     -0.0000
    121  N        -10.9540   -4.9660   37.2500 N.3   208  ASN208     -0.1225
    122  CA       -10.9610   -4.1810   36.0230 C.3   208  ASN208      0.1785
    123  C        -11.0710   -5.0000   34.7330 C.2   208  ASN208      0.2597
    124  O        -11.9570   -4.7470   33.9210 O.2   208  ASN208     -0.2718
    125  CB        -9.7130   -3.2990   35.9630 C.3   208  ASN208      0.1169
    126  CG        -9.5980   -2.5550   34.6540 C.2   208  ASN208      0.2627
    127  OD1      -10.5820   -2.0200   34.1540 O.2   208  ASN208     -0.2716
    128  ND2       -8.3920   -2.5060   34.0960 N.am  208  ASN208     -0.0877
    129  N        -10.1710   -5.9630   34.5410 N.am  209  GLU209     -0.1979
    130  CA       -10.1780   -6.8110   33.3430 C.3   209  GLU209      0.1602
    131  C         -9.7250   -8.2390   33.6760 C.2   209  GLU209      0.2287
    132  O         -9.0700   -8.4640   34.6950 O.2   209  GLU209     -0.2864
    133  CB        -9.2150   -6.2560   32.2860 C.3   209  GLU209      0.0415
    134  CG        -9.3640   -4.7770   31.9230 C.3   209  GLU209      0.1163
    135  CD       -10.4690   -4.5180   30.9130 C.2   209  GLU209      0.3649
    136  OE1      -10.6340   -5.3450   29.9930 O.co2 209  GLU209     -0.2457
    137  OE2      -11.1610   -3.4820   31.0280 O.co2 209  GLU209     -0.2457
    138  N         -7.8870  -11.3570   31.4410 N.3   211  ASN211     -0.1240
    139  CA        -7.2970  -11.7820   30.1680 C.3   211  ASN211      0.1653
    140  C         -7.2050  -13.2970   29.9710 C.2   211  ASN211      0.2266
    141  O         -6.7390  -14.0090   30.8570 O.2   211  ASN211     -0.2867
    142  CB        -5.9030  -11.1860   30.0200 C.3   211  ASN211      0.1155
    143  CG        -5.8860   -9.6870   30.2360 C.2   211  ASN211      0.2627
    144  OD1       -6.5670   -8.9400   29.5380 O.2   211  ASN211     -0.2716
    145  ND2       -5.1050   -9.2400   31.2140 N.am  211  ASN211     -0.0877
@<TRIPOS>BOND
     1    20    19    2
     2    19    18    1
     3     9     8    1
     4    18    17    1
     5    18    21    1
     6     1     2    1
     7    21    22    1
     8     8     7    1
     9     6     7    1
    10     6     5    1
    11     5     2    1
    12     2     3    1
    13    22    23    1
    14     3     4    2
    15   144   143    2
    16    23    24    1
    17    12    13    2
    18    12    11    1
    19   140   139    1
    20   140   141    2
    21   136   135   ar
    22   142   139    1
    23   142   143    1
    24   139   138    1
    25   143   145   am
    26    15    14    1
    27    11    14    1
    28    11    10    1
    29    24    25    1
    30   135   137   ar
    31   135   134    1
    32    14    16    1
    33   101    99    1
    34    26    27    1
    35    90    88    1
    36    89    88    1
    37   134   133    1
    38   133   130    1
    39    88    87    2
    40    99   100    1
    41    99    98    2
    42    30    27    1
    43    30    31    1
    44    27    28    1
    45   109   107   ar
    46    29    28    2
    47   130   131    1
    48   130   129    1
    49    33    32    2
    50    87    86    1
    51   131   132    2
    52    28    35   am
    53    98    97    1
    54    32    34   am
    55    32    31    1
    56   124   123    2
    57   128   126   am
    58   127   126    2
    59   107   108   ar
    60   107   106    1
    61    86    85    1
    62   129   123   am
    63   126   125    1
    64   123   122    1
    65    35    36    1
    66    97    96    1
    67    50    52   ar
    68    50    49   ar
    69    52    54   ar
    70   106   103    1
    71    38    37    2
    72    85    84    1
    73    36    37    1
    74    36    39    1
    75   125   122    1
    76    95    96    1
    77    95    92    1
    78   122   121    1
    79    37    44   am
    80    49    48    1
    81    49    51   ar
    82    48    45    1
    83    54    55    1
    84    54    53   ar
    85   120   119   ar
    86   120   118   ar
    87    44    45    1
    88   102   103    1
    89    45    46    1
    90    79    77   ar
    91   103   104    1
    92    84    81    1
    93    93    92    1
    94    93    94    2
    95    92    91    1
    96   119   117   ar
    97   118   116   ar
    98    51    53   ar
    99    39    40    1
   100   105   104    2
   101    71    70    1
   102    77    76    1
   103    77    78   ar
   104    46    56   am
   105    46    47    2
   106    81    82    1
   107    81    80    1
   108    40    41    1
   109    76    73    1
   110    56    57    1
   111   117   115   ar
   112   116   115   ar
   113    82    83    2
   114    70    69    1
   115    62    60    1
   116   115   114    1
   117    59    58    2
   118    69    68    1
   119    57    60    1
   120    57    58    1
   121    60    61    1
   122    41    43   ar
   123    41    42   ar
   124    73    74    1
   125    73    72    1
   126    75    74    2
   127   114   111    1
   128   110   111    1
   129    68    67    1
   130   111   112    1
   131    67    64    1
   132    63    64    1
   133   112   113    2
   134    64    65    1
   135    66    65    2
