@<TRIPOS>MOLECULE
tmp/1ucaA00.pdb
 123 121 0 0 0
SMALL
GASTEIGER

@<TRIPOS>ATOM
      1  N         21.8290   37.8750   34.1050 N.3     9  GLN9       -0.1245
      2  CA        21.5580   37.4330   35.4660 C.3     9  GLN9        0.1566
      3  C         21.9470   38.5040   36.4810 C.2     9  GLN9        0.2260
      4  O         22.8350   39.3190   36.2300 O.2     9  GLN9       -0.2867
      5  CB        22.3040   36.1200   35.7440 C.3     9  GLN9        0.0367
      6  CG        23.8240   36.2130   35.6870 C.3     9  GLN9        0.0905
      7  CD        24.4920   34.8490   35.7900 C.2     9  GLN9        0.2608
      8  OE1       23.9100   33.8950   36.3100 O.2     9  GLN9       -0.2717
      9  NE2       25.7250   34.7540   35.3010 N.am    9  GLN9       -0.0878
     10  N         21.4910   35.3860   42.3080 N.3    14  VAL14      -0.1245
     11  CA        21.9650   34.0650   41.9210 C.3    14  VAL14       0.1561
     12  C         22.7720   33.4340   43.0560 C.2    14  VAL14       0.2260
     13  O         22.5520   32.2820   43.4240 O.2    14  VAL14      -0.2867
     14  CB        22.8440   34.1440   40.6520 C.3    14  VAL14       0.0252
     15  CG1       23.4400   32.7730   40.3310 C.3    14  VAL14       0.0019
     16  CG2       22.0040   34.6370   39.4760 C.3    14  VAL14       0.0019
     17  N         24.5650   35.8410   31.1120 N.3    34  HIS34      -0.1241
     18  CA        24.5430   34.4280   31.4560 C.3    34  HIS34       0.1621
     19  C         24.8310   33.7330   30.1240 C.2    34  HIS34       0.2264
     20  O         25.7680   32.9440   30.0130 O.2    34  HIS34      -0.2867
     21  CB        23.1840   33.9880   32.0130 C.3    34  HIS34       0.0745
     22  CG        23.1190   32.5290   32.3520 C.ar   34  HIS34       0.0817
     23  ND1       22.0870   31.9780   33.0800 N.ar   34  HIS34      -0.2268
     24  CD2       23.9620   31.5070   32.0650 C.ar   34  HIS34       0.1154
     25  CE1       22.2980   30.6820   33.2310 C.ar   34  HIS34       0.1986
     26  NE2       23.4300   30.3700   32.6250 N.ar   34  HIS34      -0.2212
     27  N         21.2260   32.1860   23.8960 N.3    37  TRP37      -0.1241
     28  CA        20.7060   30.8760   23.5350 C.3    37  TRP37       0.1605
     29  C         19.8370   30.7800   22.2880 C.2    37  TRP37       0.2264
     30  O         18.7280   31.3030   22.2600 O.2    37  TRP37      -0.2867
     31  CB        19.9050   30.3090   24.7160 C.3    37  TRP37       0.0550
     32  CG        20.5870   30.3780   26.0690 C.ar   37  TRP37       0.0003
     33  CD1       21.9270   30.4980   26.3130 C.ar   37  TRP37       0.0946
     34  CD2       19.9540   30.2830   27.3540 C.ar   37  TRP37       0.0152
     35  NE1       22.1690   30.4810   27.6700 N.ar   37  TRP37      -0.2442
     36  CE2       20.9760   30.3490   28.3300 C.ar   37  TRP37       0.0810
     37  CE3       18.6230   30.1440   27.7740 C.ar   37  TRP37       0.0012
     38  CZ2       20.7070   30.2830   29.7030 C.ar   37  TRP37       0.0191
     39  CZ3       18.3570   30.0770   29.1410 C.ar   37  TRP37       0.0001
     40  CH2       19.3970   30.1470   30.0850 C.ar   37  TRP37       0.0015
     41  N         32.1290   34.6360   35.4660 N.3    71  ASN71      -0.1225
     42  CA        31.5050   33.4440   36.0200 C.3    71  ASN71       0.1785
     43  C         31.1640   33.9220   37.4280 C.2    71  ASN71       0.2597
     44  O         32.0600   34.2630   38.1970 O.2    71  ASN71      -0.2718
     45  CB        32.5150   32.2940   36.0870 C.3    71  ASN71       0.1169
     46  CG        31.8810   30.9820   36.5040 C.2    71  ASN71       0.2627
     47  OD1       30.8320   30.9600   37.1510 O.2    71  ASN71      -0.2716
     48  ND2       32.5260   29.8740   36.1460 N.am   71  ASN71      -0.0877
     49  N         29.8840   33.9780   37.7720 N.am   72  VAL72      -0.1966
     50  CA        29.5220   34.4660   39.1020 C.3    72  VAL72       0.1727
     51  C         29.5020   33.3950   40.1800 C.2    72  VAL72       0.2616
     52  O         29.4950   33.7190   41.3650 O.2    72  VAL72      -0.2715
     53  CB        28.1450   35.1800   39.0950 C.3    72  VAL72       0.0290
     54  CG1       28.1350   36.2720   38.0380 C.3    72  VAL72       0.0023
     55  CG2       27.0290   34.1810   38.8620 C.3    72  VAL72       0.0023
     56  N         29.5090   32.1280   39.7770 N.am   73  LEU73      -0.1963
     57  CA        29.4700   31.0270   40.7370 C.3    73  LEU73       0.1728
     58  C         30.8500   30.5400   41.1620 C.2    73  LEU73       0.2616
     59  O         31.0270   30.0650   42.2850 O.2    73  LEU73      -0.2715
     60  CB        28.6800   29.8480   40.1530 C.3    73  LEU73       0.0311
     61  CG        27.2040   30.1020   39.8300 C.3    73  LEU73       0.0022
     62  CD1       26.5970   28.8600   39.1860 C.3    73  LEU73       0.0001
     63  CD2       26.4540   30.4620   41.1000 C.3    73  LEU73       0.0001
     64  N         31.8230   30.6580   40.2650 N.am   74  ARG74      -0.1977
     65  CA        33.1850   30.2080   40.5310 C.3    74  ARG74       0.1597
     66  C         34.1810   31.1410   39.8490 C.2    74  ARG74       0.2287
     67  O         33.8470   31.7980   38.8680 O.2    74  ARG74      -0.2864
     68  CB        33.3640   28.7850   40.0000 C.3    74  ARG74       0.0334
     69  CG        32.3880   27.7760   40.5810 C.3    74  ARG74       0.0492
     70  CD        32.2890   26.5430   39.6970 C.3    74  ARG74       0.2205
     71  NE        33.6040   25.9930   39.3800 N.pl3  74  ARG74      -0.0865
     72  CZ        33.8060   24.9620   38.5640 C.cat  74  ARG74       0.5346
     73  NH1       32.7760   24.3650   37.9800 N.pl3  74  ARG74       0.1354
     74  NH2       35.0390   24.5320   38.3300 N.pl3  74  ARG74       0.1354
     75  N         33.5160   29.0950   31.8460 N.3    80  PHE80      -0.1241
     76  CA        32.1190   29.4620   31.6410 C.3    80  PHE80       0.1605
     77  C         31.8640   29.7890   30.1690 C.2    80  PHE80       0.2264
     78  O         30.8550   29.3670   29.6000 O.2    80  PHE80      -0.2867
     79  CB        31.7800   30.6580   32.5470 C.3    80  PHE80       0.0534
     80  CG        30.3210   31.0480   32.5540 C.ar   80  PHE80      -0.0203
     81  CD1       29.3150   30.0990   32.3720 C.ar   80  PHE80      -0.0042
     82  CD2       29.9550   32.3700   32.7960 C.ar   80  PHE80      -0.0042
     83  CE1       27.9660   30.4640   32.4340 C.ar   80  PHE80      -0.0003
     84  CE2       28.6130   32.7450   32.8600 C.ar   80  PHE80      -0.0003
     85  CZ        27.6180   31.7910   32.6800 C.ar   80  PHE80      -0.0000
     86  N         31.9180   26.5900   28.1690 N.3    83  HIS83      -0.1226
     87  CA        30.6960   25.8330   28.4130 C.3    83  HIS83       0.1752
     88  C         29.5130   26.4080   27.6410 C.2    83  HIS83       0.2595
     89  O         28.7090   25.6630   27.0810 O.2    83  HIS83      -0.2718
     90  CB        30.3860   25.8110   29.9150 C.3    83  HIS83       0.0759
     91  CG        29.0590   25.2040   30.2530 C.ar   83  HIS83       0.0818
     92  ND1       27.8910   25.9350   30.2820 N.ar   83  HIS83      -0.2268
     93  CD2       28.7150   23.9320   30.5660 C.ar   83  HIS83       0.1154
     94  CE1       26.8850   25.1400   30.6010 C.ar   83  HIS83       0.1986
     95  NE2       27.3580   23.9200   30.7780 N.ar   83  HIS83      -0.2212
     96  N         29.4050   27.7310   27.6080 N.am   84  GLU84      -0.1979
     97  CA        28.3040   28.3720   26.8980 C.3    84  GLU84       0.1602
     98  C         28.4340   28.1890   25.3900 C.2    84  GLU84       0.2287
     99  O         27.4290   28.0310   24.6920 O.2    84  GLU84      -0.2864
    100  CB        28.2370   29.8620   27.2410 C.3    84  GLU84       0.0415
    101  CG        27.6880   30.1530   28.6310 C.3    84  GLU84       0.1163
    102  CD        26.2810   29.6220   28.8270 C.2    84  GLU84       0.3649
    103  OE1       25.4040   29.9260   27.9910 O.co2  84  GLU84      -0.2457
    104  OE2       26.0480   28.9060   29.8240 O.co2  84  GLU84      -0.2457
    105  N         27.6190   24.3660   24.6260 N.3    87  LYS87      -0.1231
    106  CA        26.2230   24.0470   24.8850 C.3    87  LYS87       0.1693
    107  C         25.2150   24.8460   24.0610 C.2    87  LYS87       0.2592
    108  O         24.1690   24.3210   23.6770 O.2    87  LYS87      -0.2718
    109  CB        25.9180   24.2410   26.3750 C.3    87  LYS87       0.0285
    110  CG        24.4760   23.9330   26.7690 C.3    87  LYS87       0.0035
    111  CD        24.2500   24.1650   28.2590 C.3    87  LYS87       0.0206
    112  CE        22.8130   23.8640   28.6590 C.3    87  LYS87       0.1093
    113  NZ        22.5790   24.0810   30.1160 N.3    87  LYS87      -0.1314
    114  N         25.5200   26.1080   23.7780 N.am   88  HIS88      -0.1976
    115  CA        24.5810   26.9500   23.0420 C.3    88  HIS88       0.1656
    116  C         25.0900   27.5340   21.7330 C.2    88  HIS88       0.2291
    117  O         24.4040   27.4660   20.7080 O.2    88  HIS88      -0.2864
    118  CB        24.1220   28.1080   23.9420 C.3    88  HIS88       0.0771
    119  CG        23.3860   27.6720   25.1710 C.ar   88  HIS88       0.0820
    120  ND1       22.0930   27.2000   25.1360 N.ar   88  HIS88      -0.2267
    121  CD2       23.7620   27.6460   26.4720 C.ar   88  HIS88       0.1154
    122  CE1       21.7020   26.9020   26.3630 C.ar   88  HIS88       0.1986
    123  NE2       22.6970   27.1630   27.1930 N.ar   88  HIS88      -0.2212
@<TRIPOS>BOND
     1   117   116    2
     2   116   115    1
     3    30    29    2
     4    29    28    1
     5   115   114    1
     6   115   118    1
     7    28    27    1
     8    28    31    1
     9   108   107    2
    10   114   107   am
    11   118   119    1
    12   107   106    1
    13   105   106    1
    14    99    98    2
    15    31    32    1
    16   106   109    1
    17   120   119   ar
    18   120   122   ar
    19   119   121   ar
    20    98    97    1
    21    32    33   ar
    22    32    34   ar
    23    33    35   ar
    24   122   123   ar
    25   109   110    1
    26   121   123   ar
    27   110   111    1
    28    97   100    1
    29    97    96    1
    30    89    88    2
    31   100   101    1
    32    34    37   ar
    33    34    36   ar
    34    96    88   am
    35    88    87    1
    36    35    36   ar
    37    37    39   ar
    38   103   102   ar
    39    86    87    1
    40   111   112    1
    41    36    38   ar
    42    87    90    1
    43   101   102    1
    44   112   113    1
    45   102   104   ar
    46    39    40   ar
    47    78    77    2
    48    38    40   ar
    49    90    91    1
    50    20    19    2
    51    19    18    1
    52    77    76    1
    53    91    92   ar
    54    91    93   ar
    55    92    94   ar
    56    93    95   ar
    57    94    95   ar
    58    17    18    1
    59    18    21    1
    60    76    75    1
    61    76    79    1
    62    21    22    1
    63    24    22   ar
    64    24    26   ar
    65    22    23   ar
    66    81    83   ar
    67    81    80   ar
    68    83    85   ar
    69    79    80    1
    70    80    82   ar
    71    26    25   ar
    72    85    84   ar
    73    82    84   ar
    74    23    25   ar
    75     1     2    1
    76     9     7   am
    77     2     5    1
    78     2     3    1
    79    41    42    1
    80     6     5    1
    81     6     7    1
    82     7     8    2
    83    42    45    1
    84    42    43    1
    85    45    46    1
    86    48    46   am
    87     4     3    2
    88    46    47    2
    89    43    49   am
    90    43    44    2
    91    49    50    1
    92    73    72    1
    93    54    53    1
    94    74    72    1
    95    72    71    2
    96    55    53    1
    97    67    66    2
    98    53    50    1
    99    50    51    1
   100    62    61    1
   101    71    70    1
   102    16    14    1
   103    70    69    1
   104    56    51   am
   105    56    57    1
   106    61    60    1
   107    61    63    1
   108    66    65    1
   109    68    65    1
   110    68    69    1
   111    60    57    1
   112    51    52    2
   113    64    65    1
   114    64    58   am
   115    15    14    1
   116    14    11    1
   117    57    58    1
   118    58    59    2
   119    11    10    1
   120    11    12    1
   121    12    13    2
