@<TRIPOS>MOLECULE
tmp/1uccA00.pdb
 99 95 0 0 0
SMALL
GASTEIGER

@<TRIPOS>ATOM
      1  N         21.9090   37.6760   34.1800 N.3     9  GLN9       -0.1245
      2  CA        21.6190   37.2450   35.5450 C.3     9  GLN9        0.1566
      3  C         21.9630   38.3310   36.5610 C.2     9  GLN9        0.2260
      4  O         22.8420   39.1480   36.3250 O.2     9  GLN9       -0.2867
      5  CB        22.3880   35.9530   35.8610 C.3     9  GLN9        0.0367
      6  CG        23.9060   36.0430   35.6960 C.3     9  GLN9        0.0905
      7  CD        24.5890   34.6950   35.9080 C.2     9  GLN9        0.2608
      8  OE1       23.9880   33.7630   36.4480 O.2     9  GLN9       -0.2717
      9  NE2       25.8510   34.5910   35.4950 N.am    9  GLN9       -0.0878
     10  N         21.4630   35.3030   42.4060 N.3    14  VAL14      -0.1245
     11  CA        21.9330   33.9880   41.9930 C.3    14  VAL14       0.1561
     12  C         22.7260   33.3480   43.1310 C.2    14  VAL14       0.2260
     13  O         22.5170   32.1850   43.4780 O.2    14  VAL14      -0.2867
     14  CB        22.8430   34.0840   40.7540 C.3    14  VAL14       0.0252
     15  CG1       23.3970   32.7110   40.4050 C.3    14  VAL14       0.0019
     16  CG2       22.0590   34.6490   39.5800 C.3    14  VAL14       0.0019
     17  N         24.6480   35.6630   31.1840 N.3    34  HIS34      -0.1241
     18  CA        24.6180   34.2520   31.5390 C.3    34  HIS34       0.1621
     19  C         24.9060   33.5540   30.2090 C.2    34  HIS34       0.2264
     20  O         25.8450   32.7680   30.0950 O.2    34  HIS34      -0.2867
     21  CB        23.2480   33.8240   32.0780 C.3    34  HIS34       0.0745
     22  CG        23.1630   32.3640   32.4100 C.ar   34  HIS34       0.0817
     23  ND1       22.1420   31.8280   33.1660 N.ar   34  HIS34      -0.2268
     24  CD2       23.9740   31.3270   32.0870 C.ar   34  HIS34       0.1154
     25  CE1       22.3290   30.5270   33.2970 C.ar   34  HIS34       0.1986
     26  NE2       23.4340   30.1970   32.6520 N.ar   34  HIS34      -0.2212
     27  N         32.1470   34.4800   35.6470 N.3    71  ASN71      -0.1225
     28  CA        31.5180   33.2930   36.2040 C.3    71  ASN71       0.1785
     29  C         31.1770   33.7910   37.6080 C.2    71  ASN71       0.2597
     30  O         32.0720   34.1540   38.3670 O.2    71  ASN71      -0.2718
     31  CB        32.5240   32.1400   36.2970 C.3    71  ASN71       0.1169
     32  CG        31.8700   30.8260   36.6790 C.2    71  ASN71       0.2627
     33  OD1       30.8210   30.8050   37.3260 O.2    71  ASN71      -0.2716
     34  ND2       32.4960   29.7170   36.2940 N.am   71  ASN71      -0.0877
     35  N         29.8970   33.8380   37.9560 N.am   72  VAL72      -0.1966
     36  CA        29.5220   34.3370   39.2750 C.3    72  VAL72       0.1727
     37  C         29.4700   33.2550   40.3400 C.2    72  VAL72       0.2616
     38  O         29.4160   33.5610   41.5300 O.2    72  VAL72      -0.2715
     39  CB        28.1520   35.0520   39.2380 C.3    72  VAL72       0.0290
     40  CG1       28.1540   36.1250   38.1510 C.3    72  VAL72       0.0023
     41  CG2       27.0390   34.0410   39.0050 C.3    72  VAL72       0.0023
     42  N         29.4990   31.9940   39.9180 N.am   73  LEU73      -0.1963
     43  CA        29.4370   30.8780   40.8580 C.3    73  LEU73       0.1728
     44  C         30.8140   30.3820   41.2870 C.2    73  LEU73       0.2616
     45  O         30.9920   29.9280   42.4180 O.2    73  LEU73      -0.2715
     46  CB        28.6490   29.7150   40.2430 C.3    73  LEU73       0.0311
     47  CG        27.1810   29.9920   39.9050 C.3    73  LEU73       0.0022
     48  CD1       26.5810   28.7820   39.1970 C.3    73  LEU73       0.0001
     49  CD2       26.4080   30.3030   41.1780 C.3    73  LEU73       0.0001
     50  N         31.7830   30.4770   40.3820 N.am   74  ARG74      -0.1977
     51  CA        33.1450   30.0250   40.6470 C.3    74  ARG74       0.1597
     52  C         34.1440   31.0070   40.0420 C.2    74  ARG74       0.2287
     53  O         33.8140   31.7410   39.1130 O.2    74  ARG74      -0.2864
     54  CB        33.3630   28.6450   40.0230 C.3    74  ARG74       0.0334
     55  CG        32.3820   27.5810   40.4750 C.3    74  ARG74       0.0492
     56  CD        32.4370   26.3820   39.5430 C.3    74  ARG74       0.2205
     57  NE        33.8120   25.9570   39.2890 N.pl3  74  ARG74      -0.0865
     58  CZ        34.1550   25.0140   38.4160 C.cat  74  ARG74       0.5346
     59  NH1       33.2230   24.3900   37.7060 N.pl3  74  ARG74       0.1354
     60  NH2       35.4330   24.7010   38.2440 N.pl3  74  ARG74       0.1354
     61  N         33.6260   28.9870   32.0170 N.3    80  PHE80      -0.1241
     62  CA        32.2290   29.3500   31.8040 C.3    80  PHE80       0.1605
     63  C         31.9870   29.6540   30.3230 C.2    80  PHE80       0.2264
     64  O         31.0170   29.1700   29.7350 O.2    80  PHE80      -0.2867
     65  CB        31.8830   30.5640   32.6790 C.3    80  PHE80       0.0534
     66  CG        30.4240   30.9500   32.6630 C.ar   80  PHE80      -0.0203
     67  CD1       29.4310   30.0020   32.4320 C.ar   80  PHE80      -0.0042
     68  CD2       30.0450   32.2660   32.9220 C.ar   80  PHE80      -0.0042
     69  CE1       28.0780   30.3590   32.4590 C.ar   80  PHE80      -0.0003
     70  CE2       28.6980   32.6310   32.9520 C.ar   80  PHE80      -0.0003
     71  CZ        27.7150   31.6760   32.7190 C.ar   80  PHE80      -0.0000
     72  N         32.0550   26.4660   28.3230 N.3    83  HIS83      -0.1226
     73  CA        30.8410   25.6940   28.5600 C.3    83  HIS83       0.1752
     74  C         29.6570   26.2590   27.7840 C.2    83  HIS83       0.2595
     75  O         28.8770   25.5100   27.1970 O.2    83  HIS83      -0.2718
     76  CB        30.5230   25.6710   30.0590 C.3    83  HIS83       0.0759
     77  CG        29.3030   24.8780   30.4090 C.ar   83  HIS83       0.0818
     78  ND1       28.0290   25.3990   30.3400 N.ar   83  HIS83      -0.2268
     79  CD2       29.1620   23.5970   30.8250 C.ar   83  HIS83       0.1154
     80  CE1       27.1560   24.4740   30.6990 C.ar   83  HIS83       0.1986
     81  NE2       27.8180   23.3710   30.9990 N.ar   83  HIS83      -0.2212
     82  N         29.5200   27.5810   27.7750 N.am   84  GLU84      -0.1979
     83  CA        28.4160   28.2040   27.0560 C.3    84  GLU84       0.1602
     84  C         28.5510   28.0200   25.5510 C.2    84  GLU84       0.2287
     85  O         27.5540   27.8270   24.8530 O.2    84  GLU84      -0.2864
     86  CB        28.3160   29.6900   27.3980 C.3    84  GLU84       0.0415
     87  CG        27.7040   29.9510   28.7690 C.3    84  GLU84       0.1163
     88  CD        26.3100   29.3630   28.8980 C.2    84  GLU84       0.3649
     89  OE1       25.4330   29.7180   28.0830 O.co2  84  GLU84      -0.2457
     90  OE2       26.0900   28.5440   29.8130 O.co2  84  GLU84      -0.2457
     91  N         27.7890   24.1910   24.7440 N.3    87  LYS87      -0.1245
     92  CA        26.3940   23.8560   24.9910 C.3    87  LYS87       0.1561
     93  C         25.3870   24.6420   24.1540 C.2    87  LYS87       0.2260
     94  O         24.3670   24.0940   23.7310 O.2    87  LYS87      -0.2867
     95  CB        26.0760   24.0460   26.4780 C.3    87  LYS87       0.0271
     96  CG        24.6530   23.6700   26.8710 C.3    87  LYS87       0.0035
     97  CD        24.4490   23.7770   28.3770 C.3    87  LYS87       0.0206
     98  CE        23.0440   23.3490   28.7790 C.3    87  LYS87       0.1093
     99  NZ        22.8310   23.4570   30.2520 N.3    87  LYS87      -0.1314
@<TRIPOS>BOND
     1    94    93    2
     2    93    92    1
     3    91    92    1
     4    85    84    2
     5    92    95    1
     6    84    83    1
     7    95    96    1
     8    96    97    1
     9    83    86    1
    10    83    82    1
    11    75    74    2
    12    86    87    1
    13    82    74   am
    14    74    73    1
    15    89    88   ar
    16    72    73    1
    17    97    98    1
    18    73    76    1
    19    87    88    1
    20    98    99    1
    21    88    90   ar
    22    64    63    2
    23    76    77    1
    24    20    19    2
    25    19    18    1
    26    63    62    1
    27    78    77   ar
    28    78    80   ar
    29    77    79   ar
    30    80    81   ar
    31    79    81   ar
    32    17    18    1
    33    18    21    1
    34    62    61    1
    35    62    65    1
    36    21    22    1
    37    24    22   ar
    38    24    26   ar
    39    22    23   ar
    40    67    69   ar
    41    67    66   ar
    42    69    71   ar
    43    26    25   ar
    44    66    65    1
    45    66    68   ar
    46    71    70   ar
    47    68    70   ar
    48    23    25   ar
    49     1     2    1
    50     9     7   am
    51     2     5    1
    52     2     3    1
    53    27    28    1
    54     6     5    1
    55     6     7    1
    56     7     8    2
    57    28    31    1
    58    28    29    1
    59    34    32   am
    60    31    32    1
    61     4     3    2
    62    32    33    2
    63    29    35   am
    64    29    30    2
    65    59    58    1
    66    35    36    1
    67    40    39    1
    68    60    58    1
    69    58    57    2
    70    41    39    1
    71    53    52    2
    72    48    47    1
    73    39    36    1
    74    36    37    1
    75    57    56    1
    76    56    55    1
    77    16    14    1
    78    47    46    1
    79    47    49    1
    80    42    37   am
    81    42    43    1
    82    54    55    1
    83    54    51    1
    84    52    51    1
    85    46    43    1
    86    37    38    2
    87    50    51    1
    88    50    44   am
    89    15    14    1
    90    14    11    1
    91    43    44    1
    92    44    45    2
    93    11    10    1
    94    11    12    1
    95    12    13    2
