@<TRIPOS>MOLECULE
tmp/1ucyB00.pdb
 145 144 0 0 0
SMALL
GASTEIGER

@<TRIPOS>ATOM
      1  N         -4.4250    5.6810   50.3020 N.3    25  GLU25      -0.1231
      2  CA        -3.6220    6.8950   50.2670 C.3    25  GLU25       0.1699
      3  C         -4.2040    7.9900   49.4000 C.2    25  GLU25       0.2592
      4  O         -4.9780    7.7250   48.4850 O.2    25  GLU25      -0.2718
      5  CB        -2.2190    6.5870   49.7650 C.3    25  GLU25       0.0402
      6  CG        -2.1970    6.1970   48.3100 C.3    25  GLU25       0.1161
      7  CD        -0.7970    6.1290   47.7470 C.2    25  GLU25       0.3649
      8  OE1        0.0410    6.9810   48.1180 O.co2  25  GLU25      -0.2457
      9  OE2       -0.5380    5.2120   46.9280 O.co2  25  GLU25      -0.2457
     10  N         -3.8020    9.2200   49.7150 N.am   26  LEU26      -0.1966
     11  CA        -4.1970   10.4320   49.0050 C.3    26  LEU26       0.1728
     12  C         -3.4940   10.3740   47.6540 C.2    26  LEU26       0.2616
     13  O         -2.2690   10.2280   47.6070 O.2    26  LEU26      -0.2715
     14  CB        -3.6680   11.6360   49.7950 C.3    26  LEU26       0.0311
     15  CG        -3.8190   13.1520   49.5560 C.3    26  LEU26       0.0022
     16  CD1       -3.7220   13.5510   48.0910 C.3    26  LEU26       0.0001
     17  CD2       -5.1010   13.6310   50.1510 C.3    26  LEU26       0.0001
     18  N         -4.2560   10.4530   46.5680 N.am   27  LEU27      -0.1963
     19  CA        -3.6790   10.4380   45.2310 C.3    27  LEU27       0.1728
     20  C         -3.6090   11.8280   44.6140 C.2    27  LEU27       0.2616
     21  O         -2.6060   12.1890   44.0100 O.2    27  LEU27      -0.2715
     22  CB        -4.4790    9.5210   44.3190 C.3    27  LEU27       0.0311
     23  CG        -4.2800    8.0640   44.6980 C.3    27  LEU27       0.0022
     24  CD1       -5.2420    7.1940   43.9360 C.3    27  LEU27       0.0001
     25  CD2       -2.8380    7.6740   44.4230 C.3    27  LEU27       0.0001
     26  N         -4.6740   12.6120   44.7630 N.am   28  CYS28      -0.1968
     27  CA        -4.7140   13.9490   44.1910 C.3    28  CYS28       0.1712
     28  C         -5.9080   14.7470   44.6620 C.2    28  CYS28       0.2296
     29  O         -6.7310   14.2770   45.4400 O.2    28  CYS28      -0.2864
     30  CB        -4.8450   13.8530   42.6730 C.3    28  CYS28       0.0983
     31  SG        -3.3380   13.6800   41.6730 S.3    28  CYS28      -0.0798
     32  N         -2.8430   13.3210   34.6300 N.3    43  HIS43      -0.1241
     33  CA        -1.6860   12.6440   35.2200 C.3    43  HIS43       0.1621
     34  C         -1.9750   12.0380   36.5970 C.2    43  HIS43       0.2264
     35  O         -1.2250   11.2080   37.1030 O.2    43  HIS43      -0.2867
     36  CB        -0.4230   13.5280   35.2250 C.3    43  HIS43       0.0745
     37  CG        -0.3780   14.5150   36.3470 C.ar   43  HIS43       0.0817
     38  ND1       -0.6540   15.8560   36.1770 N.ar   43  HIS43      -0.2268
     39  CD2       -0.1410   14.3470   37.6670 C.ar   43  HIS43       0.1154
     40  CE1       -0.6050   16.4650   37.3460 C.ar   43  HIS43       0.1986
     41  NE2       -0.2960   15.5720   38.2650 N.ar   43  HIS43      -0.2212
     42  N          0.0420    8.2340   34.1380 N.3    47  TYR47      -0.1241
     43  CA         1.3560    8.8140   33.9960 C.3    47  TYR47       0.1605
     44  C          2.3660    7.6850   33.8660 C.2    47  TYR47       0.2264
     45  O          3.0900    7.3820   34.8010 O.2    47  TYR47      -0.2867
     46  CB         1.6880    9.7040   35.1850 C.3    47  TYR47       0.0534
     47  CG         2.8360   10.6190   34.8610 C.ar   47  TYR47      -0.0201
     48  CD1        2.8730   11.2940   33.6390 C.ar   47  TYR47      -0.0009
     49  CD2        3.9190   10.7500   35.7240 C.ar   47  TYR47      -0.0009
     50  CE1        3.9560   12.0670   33.2870 C.ar   47  TYR47       0.0417
     51  CE2        5.0200   11.5250   35.3810 C.ar   47  TYR47       0.0417
     52  CZ         5.0330   12.1760   34.1610 C.ar   47  TYR47       0.1957
     53  OH         6.1210   12.9230   33.7860 O.3    47  TYR47      -0.2866
     54  N          5.3830    7.3890   32.9280 N.3    49  PRO49      -0.2102
     55  CA         6.7320    7.5680   33.4550 C.3    49  PRO49       0.1504
     56  C          6.8940    7.0640   34.8860 C.2    49  PRO49       0.2575
     57  O          7.9910    6.6820   35.2890 O.2    49  PRO49      -0.2718
     58  CB         6.9120    9.0780   33.3750 C.3    49  PRO49       0.0282
     59  CG         6.2680    9.3950   32.1030 C.3    49  PRO49       0.0208
     60  CD         4.9720    8.6030   32.1980 C.3    49  PRO49       0.0893
     61  N          5.8160    7.0870   35.6620 N.am   50  TRP50      -0.1977
     62  CA         5.8850    6.6380   37.0430 C.3    50  TRP50       0.1640
     63  C          5.1080    5.3490   37.2000 C.2    50  TRP50       0.2290
     64  O          4.7640    4.9600   38.3250 O.2    50  TRP50      -0.2864
     65  CB         5.2980    7.6760   37.9820 C.3    50  TRP50       0.0576
     66  CG         6.0440    8.9820   38.0920 C.ar   50  TRP50       0.0006
     67  CD1        7.1190    9.3890   37.3660 C.ar   50  TRP50       0.0946
     68  CD2        5.7350   10.0560   38.9920 C.ar   50  TRP50       0.0152
     69  NE1        7.5000   10.6490   37.7540 N.ar   50  TRP50      -0.2442
     70  CE2        6.6660   11.0810   38.7500 C.ar   50  TRP50       0.0810
     71  CE3        4.7570   10.2490   39.9790 C.ar   50  TRP50       0.0012
     72  CZ2        6.6520   12.2830   39.4610 C.ar   50  TRP50       0.0191
     73  CZ3        4.7410   11.4510   40.6900 C.ar   50  TRP50       0.0001
     74  CH2        5.6790   12.4480   40.4250 C.ar   50  TRP50       0.0015
     75  N          2.0120    4.6300   36.2940 N.3    52  LYS52      -0.1245
     76  CA         0.7090    4.9380   36.8510 C.3    52  LYS52       0.1561
     77  C         -0.4410    4.8480   35.8320 C.2    52  LYS52       0.2260
     78  O         -0.4960    5.5990   34.8650 O.2    52  LYS52      -0.2867
     79  CB         0.7810    6.3360   37.4900 C.3    52  LYS52       0.0271
     80  CG        -0.4870    6.8070   38.1710 C.3    52  LYS52       0.0035
     81  CD        -0.4000    8.2640   38.6220 C.3    52  LYS52       0.0206
     82  CE         0.4490    8.4360   39.8690 C.3    52  LYS52       0.1093
     83  NZ        -0.0290    9.6250   40.6040 N.3    52  LYS52      -0.1314
     84  N          1.7640   13.2840   28.0070 N.3    92  TRP92      -0.1227
     85  CA         2.5950   13.1610   29.2090 C.3    92  TRP92       0.1737
     86  C          4.0950   13.2050   28.9230 C.2    92  TRP92       0.2595
     87  O          4.8750   13.6470   29.7590 O.2    92  TRP92      -0.2718
     88  CB         2.2490   11.8790   29.9670 C.3    92  TRP92       0.0564
     89  CG         2.2050   10.6810   29.0950 C.ar   92  TRP92       0.0003
     90  CD1        1.1140   10.1710   28.4600 C.ar   92  TRP92       0.0946
     91  CD2        3.3080    9.8370   28.7410 C.ar   92  TRP92       0.0152
     92  NE1        1.4630    9.0570   27.7300 N.ar   92  TRP92      -0.2442
     93  CE2        2.8060    8.8310   27.8850 C.ar   92  TRP92       0.0810
     94  CE3        4.6720    9.8320   29.0680 C.ar   92  TRP92       0.0012
     95  CZ2        3.6200    7.8290   27.3490 C.ar   92  TRP92       0.0191
     96  CZ3        5.4770    8.8400   28.5400 C.ar   92  TRP92       0.0001
     97  CH2        4.9480    7.8500   27.6880 C.ar   92  TRP92       0.0015
     98  N          4.4930   12.7730   27.7320 N.am   93  LYS93      -0.1966
     99  CA         5.9090   12.7420   27.3670 C.3    93  LYS93       0.1728
    100  C          6.5360   14.1160   27.2590 C.2    93  LYS93       0.2616
    101  O          7.3530   14.5060   28.0840 O.2    93  LYS93      -0.2715
    102  CB         6.1260   12.0360   26.0250 C.3    93  LYS93       0.0311
    103  CG         5.3330   10.7630   25.8210 C.3    93  LYS93       0.0038
    104  CD         5.4560   10.2870   24.3760 C.3    93  LYS93       0.0206
    105  CE         4.7000    8.9790   24.1120 C.3    93  LYS93       0.1093
    106  NZ         4.9260    8.4890   22.7130 N.3    93  LYS93      -0.1314
    107  N          6.1170   14.8490   26.2410 N.am   94  GLU94      -0.1963
    108  CA         6.6680   16.1550   25.9310 C.3    94  GLU94       0.1733
    109  C          6.4120   17.3550   26.8310 C.2    94  GLU94       0.2616
    110  O          7.3630   18.0330   27.2410 O.2    94  GLU94      -0.2715
    111  CB         6.3200   16.5190   24.4770 C.3    94  GLU94       0.0429
    112  CG         6.8440   17.8740   24.0100 C.3    94  GLU94       0.1163
    113  CD         6.4980   18.1980   22.5620 C.2    94  GLU94       0.3649
    114  OE1        5.3680   17.8800   22.1060 O.co2  94  GLU94      -0.2457
    115  OE2        7.3620   18.8010   21.8850 O.co2  94  GLU94      -0.2457
    116  N          5.1580   17.6240   27.1700 N.am   95  ASN95      -0.1958
    117  CA         4.9000   18.8270   27.9380 C.3    95  ASN95       0.1819
    118  C          3.7180   18.8250   28.8780 C.2    95  ASN95       0.2621
    119  O          3.4590   19.8350   29.5420 O.2    95  ASN95      -0.2715
    120  CB         4.7500   19.9910   26.9610 C.3    95  ASN95       0.1195
    121  CG         3.7200   19.7160   25.8740 C.2    95  ASN95       0.2630
    122  OD1        3.2020   18.6080   25.7570 O.2    95  ASN95      -0.2716
    123  ND2        3.4180   20.7240   25.0790 N.am   95  ASN95      -0.0877
    124  N          3.0200   17.6980   28.9670 N.am   96  LEU96      -0.1977
    125  CA         1.8440   17.5910   29.8290 C.3    96  LEU96       0.1596
    126  C          0.7520   18.5180   29.3180 C.2    96  LEU96       0.2287
    127  O          0.1770   19.2820   30.0740 O.2    96  LEU96      -0.2864
    128  CB         2.1740   17.9150   31.2900 C.3    96  LEU96       0.0297
    129  CG         2.3970   16.7590   32.2540 C.3    96  LEU96       0.0022
    130  CD1        1.8180   17.2040   33.5790 C.3    96  LEU96       0.0001
    131  CD2        1.6750   15.5110   31.7990 C.3    96  LEU96       0.0001
    132  N         10.3580   18.6750   48.6740 N.3   147  THR147     -0.1218
    133  CA        10.8620   17.5130   49.3790 C.3   147  THR147      0.1862
    134  C         12.3210   17.0390   49.3530 C.2   147  THR147      0.2287
    135  O         12.9720   16.9330   48.3070 O.2   147  THR147     -0.2866
    136  CB         9.9040   16.3130   49.1900 C.3   147  THR147      0.1770
    137  OG1        9.2370   16.0480   50.4340 O.3   147  THR147     -0.2211
    138  CG2       10.6310   15.0640   48.6840 C.3   147  THR147      0.0375
    139  N          9.6210   13.6830   53.9840 N.3   150  THR150     -0.1218
    140  CA         8.4590   12.8610   53.6900 C.3   150  THR150      0.1862
    141  C          7.2500   13.7550   53.3550 C.2   150  THR150      0.2287
    142  O          6.5600   13.4680   52.3530 O.2   150  THR150     -0.2866
    143  CB         8.1720   11.8860   54.8930 C.3   150  THR150      0.1770
    144  OG1        7.4150   10.7560   54.4410 O.3   150  THR150     -0.2211
    145  CG2        7.4340   12.5830   56.0340 C.3   150  THR150      0.0375
@<TRIPOS>BOND
     1   115   113   ar
     2   114   113   ar
     3   113   112    1
     4   106   105    1
     5   112   111    1
     6   105   104    1
     7   104   103    1
     8   111   108    1
     9   123   121   am
    10   122   121    2
    11   103   102    1
    12   121   120    1
    13   108   107    1
    14   108   109    1
    15   102    99    1
    16   107   100   am
    17   109   116   am
    18   109   110    2
    19   120   117    1
    20   116   117    1
    21   100    99    1
    22   100   101    2
    23    95    97   ar
    24    95    93   ar
    25    99    98    1
    26    97    96   ar
    27    92    93   ar
    28    92    90   ar
    29    98    86   am
    30    93    91   ar
    31   117   118    1
    32    84    85    1
    33    90    89   ar
    34    96    94   ar
    35    91    94   ar
    36    91    89   ar
    37   118   124   am
    38   118   119    2
    39    86    85    1
    40    86    87    2
    41   124   125    1
    42    89    88    1
    43    85    88    1
    44   126   125    1
    45   126   127    2
    46   125   128    1
    47   128   129    1
    48   131   129    1
    49    59    60    1
    50    59    58    1
    51    60    54    1
    52   129   130    1
    53    54    55    1
    54    50    48   ar
    55    50    52   ar
    56    58    55    1
    57    55    56    1
    58    48    47   ar
    59    53    52    1
    60    44    43    1
    61    44    45    2
    62    43    42    1
    63    43    46    1
    64    52    51   ar
    65    32    33    1
    66    47    46    1
    67    47    49   ar
    68    78    77    2
    69    56    57    2
    70    56    61   am
    71    33    36    1
    72    33    34    1
    73    36    37    1
    74    51    49   ar
    75    61    62    1
    76    77    76    1
    77    38    37   ar
    78    38    40   ar
    79    75    76    1
    80    37    39   ar
    81    34    35    2
    82    76    79    1
    83    62    63    1
    84    62    65    1
    85    63    64    2
    86    40    41   ar
    87    67    69   ar
    88    67    66   ar
    89    79    80    1
    90    39    41   ar
    91    69    70   ar
    92    65    66    1
    93    66    68   ar
    94    80    81    1
    95    81    82    1
    96    70    68   ar
    97    70    72   ar
    98    68    71   ar
    99    72    74   ar
   100    82    83    1
   101    71    73   ar
   102    74    73   ar
   103    31    30    1
   104    30    27    1
   105    24    23    1
   106    21    20    2
   107    27    28    1
   108    27    26    1
   109    22    23    1
   110    22    19    1
   111    25    23    1
   112    20    26   am
   113    20    19    1
   114    28    29    2
   115    19    18    1
   116    18    12   am
   117     9     7   ar
   118    13    12    2
   119    12    11    1
   120     7     8   ar
   121     7     6    1
   122    16    15    1
   123   135   134    2
   124     6     5    1
   125     4     3    2
   126   132   133    1
   127   138   136    1
   128    11    10    1
   129    11    14    1
   130   136   133    1
   131   136   137    1
   132   134   133    1
   133     3    10   am
   134     3     2    1
   135    15    14    1
   136    15    17    1
   137     5     2    1
   138     2     1    1
   139   142   141    2
   140   141   140    1
   141   140   139    1
   142   140   143    1
   143   144   143    1
   144   143   145    1
