@<TRIPOS>MOLECULE
tmp/1ucyC00.pdb
 157 157 0 0 0
SMALL
GASTEIGER

@<TRIPOS>ATOM
      1  N         12.1950   25.7900   30.2620 N.3    28  ARG28      -0.1231
      2  CA        12.7440   25.2590   29.0210 C.3    28  ARG28       0.1694
      3  C         11.6890   24.3950   28.3320 C.2    28  ARG28       0.2591
      4  O         11.8060   24.0620   27.1540 O.2    28  ARG28      -0.2718
      5  CB        14.0090   24.4630   29.3160 C.3    28  ARG28       0.0321
      6  CG        14.9520   25.2200   30.2490 C.3    28  ARG28       0.0489
      7  CD        16.2970   25.5190   29.6240 C.3    28  ARG28       0.2205
      8  NE        17.1830   24.3560   29.6410 N.pl3  28  ARG28      -0.0865
      9  CZ        18.5100   24.4160   29.5410 C.cat  28  ARG28       0.5346
     10  NH1       19.1290   25.5910   29.4140 N.pl3  28  ARG28       0.1354
     11  NH2       19.2240   23.2950   29.5660 N.pl3  28  ARG28       0.1354
     12  N         10.6170   24.0980   29.0580 N.am   29  ILE29      -0.1980
     13  CA         9.5250   23.2850   28.5340 C.3    29  ILE29       0.1595
     14  C          8.6600   24.0170   27.5050 C.2    29  ILE29       0.2287
     15  O          8.5470   25.2410   27.5270 O.2    29  ILE29      -0.2864
     16  CB         8.6860   22.6900   29.7090 C.3    29  ILE29       0.0276
     17  CG1        9.4630   21.5300   30.3520 C.3    29  ILE29       0.0022
     18  CG2        7.3060   22.2140   29.2400 C.3    29  ILE29       0.0022
     19  CD1        9.5960   21.6160   31.8650 C.3    29  ILE29       0.0001
     20  N          2.8650   28.7410   46.6060 N.3    49  ASP49      -0.1225
     21  CA         2.7750   27.9050   45.4230 C.3    49  ASP49       0.1805
     22  C          2.0580   26.6060   45.7310 C.2    49  ASP49       0.2598
     23  O          1.8090   26.2870   46.8870 O.2    49  ASP49      -0.2718
     24  CB         4.1830   27.5660   44.9450 C.3    49  ASP49       0.1424
     25  CG         4.2080   27.0490   43.5400 C.2    49  ASP49       0.3668
     26  OD1        3.1310   26.9560   42.9030 O.co2  49  ASP49      -0.2456
     27  OD2        5.3110   26.7530   43.0560 O.co2  49  ASP49      -0.2456
     28  N          1.6270   25.9030   44.6960 N.am   50  ALA50      -0.1966
     29  CA         1.0270   24.5980   44.9020 C.3    50  ALA50       0.1728
     30  C          2.2440   23.6580   45.0170 C.2    50  ALA50       0.2616
     31  O          3.3370   24.0060   44.5760 O.2    50  ALA50      -0.2715
     32  CB         0.1740   24.2290   43.7060 C.3    50  ALA50       0.0334
     33  N          2.0750   22.4780   45.6000 N.am   51  CYS51      -0.1954
     34  CA         3.1950   21.5520   45.7330 C.3    51  CYS51       0.1843
     35  C          2.7160   20.1180   45.5540 C.2    51  CYS51       0.2625
     36  O          1.5380   19.8860   45.2610 O.2    51  CYS51      -0.2714
     37  CB         3.9100   21.7580   47.0700 C.3    51  CYS51       0.0997
     38  SG         5.6120   21.1020   47.1360 S.3    51  CYS51      -0.0797
     39  N          3.6150   19.1500   45.6910 N.am   52  GLU52      -0.1963
     40  CA         3.2220   17.7560   45.5110 C.3    52  GLU52       0.1733
     41  C          2.0160   17.3700   46.3560 C.2    52  GLU52       0.2616
     42  O          1.9680   17.6670   47.5510 O.2    52  GLU52      -0.2715
     43  CB         4.3910   16.8110   45.7620 C.3    52  GLU52       0.0429
     44  CG         5.1330   17.0740   47.0340 C.3    52  GLU52       0.1163
     45  CD         6.6420   16.9780   46.8680 C.2    52  GLU52       0.3649
     46  OE1        7.1660   17.1720   45.7460 O.co2  52  GLU52      -0.2457
     47  OE2        7.3120   16.7410   47.8840 O.co2  52  GLU52      -0.2457
     48  N          1.0250   16.7680   45.7010 N.am   53  GLY53      -0.1955
     49  CA        -0.1880   16.3500   46.3740 C.3    53  GLY53       0.1869
     50  C         -1.3520   17.2650   46.0680 C.2    53  GLY53       0.2309
     51  O         -2.4960   16.8960   46.2870 O.2    53  GLY53      -0.2863
     52  N         -1.9660   18.3580   43.1250 N.3    55  SER55      -0.1217
     53  CA        -2.2860   18.0750   41.7390 C.3    55  SER55       0.1889
     54  C         -3.7680   17.7560   41.5340 C.2    55  SER55       0.2288
     55  O         -4.3890   17.1220   42.3840 O.2    55  SER55      -0.2866
     56  CB        -1.4690   16.8780   41.3170 C.3    55  SER55       0.2089
     57  OG        -0.8640   17.0950   40.0770 O.3    55  SER55      -0.2183
     58  N         -4.4570   22.2160   38.9600 N.3    75  VAL75      -0.1231
     59  CA        -3.0590   22.1310   39.3660 C.3    75  VAL75       0.1692
     60  C         -2.3900   21.0430   38.5160 C.2    75  VAL75       0.2593
     61  O         -2.6530   19.8490   38.6660 O.2    75  VAL75      -0.2718
     62  CB        -2.9080   21.8500   40.9070 C.3    75  VAL75       0.0266
     63  CG1       -1.4630   21.5100   41.2590 C.3    75  VAL75       0.0020
     64  CG2       -3.3130   23.0640   41.7130 C.3    75  VAL75       0.0020
     65  N         -1.5480   21.4840   37.5890 N.am   76  SER76      -0.1938
     66  CA        -0.8780   20.5790   36.6810 C.3    76  SER76       0.2055
     67  C          0.5520   20.2610   37.0660 C.2    76  SER76       0.2643
     68  O          0.8290   19.1540   37.5260 O.2    76  SER76      -0.2714
     69  CB        -0.9280   21.1330   35.2550 C.3    76  SER76       0.2130
     70  OG        -0.5860   20.1490   34.2950 O.3    76  SER76      -0.2179
     71  N          1.4670   21.2090   36.8930 N.am   77  TRP77      -0.1959
     72  CA         2.8700   20.9290   37.1890 C.3    77  TRP77       0.1771
     73  C          3.7060   22.1670   37.5040 C.2    77  TRP77       0.2620
     74  O          3.1990   23.2740   37.5300 O.2    77  TRP77      -0.2715
     75  CB         3.4930   20.1960   36.0020 C.3    77  TRP77       0.0590
     76  CG         3.5430   21.0400   34.7670 C.ar   77  TRP77       0.0006
     77  CD1        2.5250   21.2740   33.8810 C.ar   77  TRP77       0.0946
     78  CD2        4.6570   21.8210   34.3130 C.ar   77  TRP77       0.0152
     79  NE1        2.9340   22.1540   32.9190 N.ar   77  TRP77      -0.2442
     80  CE2        4.2390   22.5040   33.1550 C.ar   77  TRP77       0.0810
     81  CE3        5.9650   22.0080   34.7760 C.ar   77  TRP77       0.0012
     82  CZ2        5.0840   23.3620   32.4520 C.ar   77  TRP77       0.0191
     83  CZ3        6.7980   22.8560   34.0860 C.ar   77  TRP77       0.0001
     84  CH2        6.3600   23.5230   32.9320 C.ar   77  TRP77       0.0015
     85  N          5.0050   21.9550   37.6900 N.am   78  GLY78      -0.1940
     86  CA         5.9420   23.0290   37.9850 C.3    78  GLY78       0.2014
     87  C          7.3260   22.4330   38.1860 C.2    78  GLY78       0.2639
     88  O          7.5080   21.2320   38.0450 O.2    78  GLY78      -0.2714
     89  N          8.3140   23.2560   38.4880 N.am   79  GLU79      -0.1963
     90  CA         9.6780   22.7660   38.7070 C.3    79  GLU79       0.1733
     91  C         10.0120   23.0280   40.1590 C.2    79  GLU79       0.2617
     92  O         10.5290   24.0880   40.5070 O.2    79  GLU79      -0.2715
     93  CB        10.6430   23.4860   37.7780 C.3    79  GLU79       0.0429
     94  CG        10.1690   23.4430   36.3090 C.3    79  GLU79       0.1163
     95  CD        11.1060   24.1420   35.3340 C.2    79  GLU79       0.3649
     96  OE1       12.3330   24.0520   35.5120 O.co2  79  GLU79      -0.2457
     97  OE2       10.6150   24.7640   34.3750 O.co2  79  GLU79      -0.2457
     98  N          9.6080   22.0810   41.0040 N.am   80  GLY80      -0.1940
     99  CA         9.8180   22.1810   42.4370 C.3    80  GLY80       0.2014
    100  C          8.6550   22.9770   42.9760 C.2    80  GLY80       0.2639
    101  O          7.6720   23.1690   42.2660 O.2    80  GLY80      -0.2714
    102  N          8.7610   23.5020   44.1860 N.am   81  CYS81      -0.1967
    103  CA         7.6600   24.2730   44.7310 C.3    81  CYS81       0.1712
    104  C          8.1740   25.5530   45.3350 C.2    81  CYS81       0.2296
    105  O          8.9860   25.5110   46.2570 O.2    81  CYS81      -0.2864
    106  CB         6.9190   23.5020   45.8290 C.3    81  CYS81       0.0983
    107  SG         6.4930   21.7810   45.4430 S.3    81  CYS81      -0.0798
    108  N         10.1500   28.0820   44.0000 N.3    83  ARG83      -0.1245
    109  CA        11.5010   28.5530   43.7430 C.3    83  ARG83       0.1563
    110  C         11.3660   29.9220   43.0790 C.2    83  ARG83       0.2260
    111  O         10.5010   30.1080   42.2170 O.2    83  ARG83      -0.2867
    112  CB        12.2290   27.6030   42.7920 C.3    83  ARG83       0.0307
    113  CG        12.3810   26.2060   43.3020 C.3    83  ARG83       0.0489
    114  CD        13.0550   25.3640   42.2450 C.3    83  ARG83       0.2205
    115  NE        13.2800   23.9830   42.6710 N.pl3  83  ARG83      -0.0865
    116  CZ        13.5510   22.9770   41.8370 C.cat  83  ARG83       0.5346
    117  NH1       13.6380   23.1910   40.5240 N.pl3  83  ARG83       0.1354
    118  NH2       13.7360   21.7500   42.3180 N.pl3  83  ARG83       0.1354
    119  N          7.3120   29.3810   38.1390 N.3    87  TYR87      -0.1227
    120  CA         5.8620   29.5140   38.2410 C.3    87  TYR87       0.1736
    121  C          5.1320   28.1900   38.0810 C.2    87  TYR87       0.2596
    122  O          5.4890   27.3920   37.2170 O.2    87  TYR87      -0.2718
    123  CB         5.3770   30.4930   37.1840 C.3    87  TYR87       0.0548
    124  CG         6.0990   31.8050   37.3040 C.ar   87  TYR87      -0.0200
    125  CD1        5.8260   32.6720   38.3610 C.ar   87  TYR87      -0.0009
    126  CD2        7.1130   32.1490   36.4140 C.ar   87  TYR87      -0.0009
    127  CE1        6.5500   33.8460   38.5370 C.ar   87  TYR87       0.0417
    128  CE2        7.8390   33.3250   36.5820 C.ar   87  TYR87       0.0417
    129  CZ         7.5500   34.1580   37.6460 C.ar   87  TYR87       0.1957
    130  OH         8.2740   35.2910   37.8380 O.3    87  TYR87      -0.2866
    131  N          4.1120   27.9670   38.9160 N.am   88  GLY88      -0.1942
    132  CA         3.3290   26.7450   38.8450 C.3    88  GLY88       0.2014
    133  C          2.4730   26.7610   37.6060 C.2    88  GLY88       0.2639
    134  O          2.0220   27.8260   37.1950 O.2    88  GLY88      -0.2714
    135  N          2.3280   25.6190   36.9440 N.am   89  PHE89      -0.1959
    136  CA         1.5080   25.5610   35.7420 C.3    89  PHE89       0.1771
    137  C          0.1850   24.8880   36.0050 C.2    89  PHE89       0.2619
    138  O          0.0710   24.0860   36.9240 O.2    89  PHE89      -0.2715
    139  CB         2.2670   24.9710   34.5690 C.3    89  PHE89       0.0574
    140  CG         3.2470   25.9270   33.9710 C.ar   89  PHE89      -0.0200
    141  CD1        4.4250   26.2490   34.6470 C.ar   89  PHE89      -0.0042
    142  CD2        2.9700   26.5590   32.7610 C.ar   89  PHE89      -0.0042
    143  CE1        5.3140   27.1950   34.1200 C.ar   89  PHE89      -0.0003
    144  CE2        3.8440   27.5000   32.2290 C.ar   89  PHE89      -0.0003
    145  CZ         5.0180   27.8170   32.9120 C.ar   89  PHE89      -0.0000
    146  N         -0.8180   25.2860   35.2370 N.am   90  TYR90      -0.1974
    147  CA        -2.1920   24.8470   35.4260 C.3    90  TYR90       0.1639
    148  C         -2.8480   24.6260   34.1140 C.2    90  TYR90       0.2290
    149  O         -2.6570   25.4250   33.2020 O.2    90  TYR90      -0.2864
    150  CB        -2.9910   25.9660   36.1250 C.3    90  TYR90       0.0560
    151  CG        -2.4940   26.3480   37.5050 C.ar   90  TYR90      -0.0198
    152  CD1       -1.4110   27.2280   37.6630 C.ar   90  TYR90      -0.0009
    153  CD2       -3.0590   25.7990   38.6420 C.ar   90  TYR90      -0.0009
    154  CE1       -0.9090   27.5340   38.9140 C.ar   90  TYR90       0.0417
    155  CE2       -2.5600   26.0970   39.9100 C.ar   90  TYR90       0.0417
    156  CZ        -1.4830   26.9680   40.0380 C.ar   90  TYR90       0.1957
    157  OH        -0.9800   27.2740   41.2910 O.3    90  TYR90      -0.2866
@<TRIPOS>BOND
     1     4     3    2
     2    14    15    2
     3    14    13    1
     4     3     2    1
     5     3    12   am
     6    13    12    1
     7    13    16    1
     8     2     5    1
     9     2     1    1
    10    18    16    1
    11     5     6    1
    12    10     9    1
    13     9    11    1
    14     9     8    2
    15     7     8    1
    16     7     6    1
    17    16    17    1
    18    17    19    1
    19   144   142   ar
    20   144   145   ar
    21    82    84   ar
    22    82    80   ar
    23   142   140   ar
    24   145   143   ar
    25    79    80   ar
    26    79    77   ar
    27    84    83   ar
    28    80    78   ar
    29   149   148    2
    30    77    76   ar
    31   140   139    1
    32   140   141   ar
    33    83    81   ar
    34   148   147    1
    35   143   141   ar
    36    70    69    1
    37    78    76   ar
    38    78    81   ar
    39    97    95   ar
    40   139   136    1
    41    76    75    1
    42   146   147    1
    43   146   137   am
    44    69    66    1
    45    95    96   ar
    46    95    94    1
    47   147   150    1
    48   136   137    1
    49   136   135    1
    50    75    72    1
    51   137   138    2
    52   150   151    1
    53    94    93    1
    54   126   128   ar
    55   126   124   ar
    56   128   129   ar
    57    66    67    1
    58    66    65    1
    59    71    67   am
    60    71    72    1
    61   135   133   am
    62    67    68    2
    63   123   124    1
    64   123   120    1
    65    72    73    1
    66   134   133    2
    67   122   121    2
    68   124   125   ar
    69    73    74    2
    70    73    85   am
    71   151   152   ar
    72   151   153   ar
    73    65    60   am
    74   133   132    1
    75   129   130    1
    76   129   127   ar
    77   152   154   ar
    78    85    86    1
    79    93    90    1
    80    86    87    1
    81    88    87    2
    82   121   120    1
    83   121   131   am
    84   119   120    1
    85    87    89   am
    86   125   127   ar
    87    89    90    1
    88    60    61    2
    89    60    59    1
    90   153   155   ar
    91    90    91    1
    92   132   131    1
    93   154   156   ar
    94    58    59    1
    95    59    62    1
    96   155   156   ar
    97   156   157    1
    98    57    56    1
    99    91    92    2
   100    91    98   am
   101   117   116    1
   102    62    63    1
   103    62    64    1
   104    98    99    1
   105    56    53    1
   106    54    53    1
   107    54    55    2
   108    53    52    1
   109   116   118    1
   110   116   115    2
   111   111   110    2
   112   114   115    1
   113   114   113    1
   114   101   100    2
   115    99   100    1
   116   112   113    1
   117   112   109    1
   118    26    25   ar
   119   100   102   am
   120    27    25   ar
   121   110   109    1
   122    25    24    1
   123    32    29    1
   124   109   108    1
   125   102   103    1
   126    31    30    2
   127    28    29    1
   128    28    22   am
   129   103   104    1
   130   103   106    1
   131    29    30    1
   132    24    21    1
   133    30    33   am
   134    36    35    2
   135   104   105    2
   136    21    22    1
   137    21    20    1
   138   107   106    1
   139   107    38    1
   140    40    39    1
   141    40    43    1
   142    40    41    1
   143    35    39   am
   144    35    34    1
   145    33    34    1
   146    48    41   am
   147    48    49    1
   148    22    23    2
   149    34    37    1
   150    46    45   ar
   151    43    44    1
   152    50    51    2
   153    50    49    1
   154    41    42    2
   155    45    44    1
   156    45    47   ar
   157    37    38    1
