@<TRIPOS>MOLECULE
tmp/1udhA00.pdb
 93 91 0 0 0
SMALL
GASTEIGER

@<TRIPOS>ATOM
      1  N        -12.4060   14.2360    4.6200 N.3    70  GLY70      -0.1210
      2  CA       -11.0170   13.7980    4.5320 C.3    70  GLY70       0.1956
      3  C        -10.9360   12.4160    3.8610 C.2    70  GLY70       0.2612
      4  O        -11.9610   11.8610    3.4890 O.2    70  GLY70      -0.2717
      5  N         -9.7270   11.9000    3.6480 N.am   71  GLN71      -0.1965
      6  CA        -9.5120   10.5790    3.0380 C.3    71  GLN71       0.1733
      7  C         -9.3820    9.5130    4.1290 C.2    71  GLN71       0.2616
      8  O        -10.3940    8.9120    4.4890 O.2    71  GLN71      -0.2715
      9  CB        -8.3040   10.5870    2.0690 C.3    71  GLN71       0.0408
     10  CG        -8.1190    9.2490    1.2790 C.3    71  GLN71       0.0908
     11  CD        -6.6680    9.0450    0.7640 C.2    71  GLN71       0.2608
     12  OE1       -5.6860    9.4300    1.4410 O.2    71  GLN71      -0.2717
     13  NE2       -6.5260    8.4270   -0.4530 N.am   71  GLN71      -0.0878
     14  N         -8.2040    9.2980    4.7160 N.am   72  ASP72      -0.1958
     15  CA        -8.1000    8.2900    5.7790 C.3    72  ASP72       0.1825
     16  C         -7.3110    8.8350    6.9610 C.2    72  ASP72       0.2464
     17  O         -6.7310    9.9200    6.8530 O.2    72  ASP72      -0.2730
     18  CB        -7.5490    6.9480    5.2580 C.3    72  ASP72       0.1450
     19  CG        -6.1070    7.0290    4.7630 C.2    72  ASP72       0.3671
     20  OD1       -5.6090    8.1150    4.4240 O.co2  72  ASP72      -0.2456
     21  OD2       -5.4700    5.9670    4.6840 O.co2  72  ASP72      -0.2456
     22  N         -7.3310    8.1430    8.1210 N.am   73  PRO73      -0.2715
     23  CA        -6.5990    8.6390    9.3040 C.3    73  PRO73       0.1536
     24  C         -5.0800    8.6960    9.1780 C.2    73  PRO73       0.2598
     25  O         -4.5080    8.0230    8.3260 O.2    73  PRO73      -0.2715
     26  CB        -6.9790    7.6310   10.4100 C.3    73  PRO73       0.0310
     27  CG        -8.1980    6.8750    9.8780 C.3    73  PRO73       0.0237
     28  CD        -8.0140    6.8550    8.3990 C.3    73  PRO73       0.0939
     29  N         -4.4480    9.4970   10.0370 N.am   74  TYR74      -0.1974
     30  CA        -2.9830    9.5590   10.1150 C.3    74  TYR74       0.1639
     31  C         -2.5640    8.1110   10.4250 C.2    74  TYR74       0.2290
     32  O         -3.2310    7.3990   11.1910 O.2    74  TYR74      -0.2864
     33  CB        -2.5430   10.4560   11.2650 C.3    74  TYR74       0.0560
     34  CG        -2.8080   11.9300   11.0250 C.ar   74  TYR74      -0.0198
     35  CD1       -2.1860   12.6120    9.9540 C.ar   74  TYR74      -0.0009
     36  CD2       -3.6550   12.6570   11.8780 C.ar   74  TYR74      -0.0009
     37  CE1       -2.4080   13.9930    9.7460 C.ar   74  TYR74       0.0417
     38  CE2       -3.8720   14.0270   11.6720 C.ar   74  TYR74       0.0417
     39  CZ        -3.2440   14.6750   10.6070 C.ar   74  TYR74       0.1957
     40  OH        -3.4440   16.0060   10.4090 O.3    74  TYR74      -0.2866
     41  N         -3.8700    9.9140   15.1260 N.3    80  ALA80      -0.1245
     42  CA        -5.3100    9.8650   14.8800 C.3    80  ALA80       0.1562
     43  C         -6.1600    9.5870   16.1260 C.2    80  ALA80       0.2260
     44  O         -5.7980    8.7860   16.9850 O.2    80  ALA80      -0.2867
     45  CB        -5.6140    8.8220   13.7820 C.3    80  ALA80       0.0290
     46  N        -11.2550   12.0640   14.4530 N.3    83  LEU83      -0.1231
     47  CA       -11.6630   13.3050   13.8000 C.3    83  LEU83       0.1693
     48  C        -10.7010   13.5470   12.6050 C.2    83  LEU83       0.2592
     49  O         -9.4870   13.4830   12.7870 O.2    83  LEU83      -0.2718
     50  CB       -11.5350   14.4940   14.7820 C.3    83  LEU83       0.0284
     51  CG       -12.3530   14.5640   16.0730 C.3    83  LEU83       0.0019
     52  CD1      -12.1320   15.9140   16.7730 C.3    83  LEU83       0.0001
     53  CD2      -13.8300   14.3750   15.7550 C.3    83  LEU83       0.0001
     54  N        -11.2200   13.8510   11.4170 N.am   84  ALA84      -0.1966
     55  CA       -10.3430   14.1290   10.2840 C.3    84  ALA84       0.1728
     56  C         -9.4040   15.3300   10.6000 C.2    84  ALA84       0.2616
     57  O         -9.8130   16.3170   11.2120 O.2    84  ALA84      -0.2715
     58  CB       -11.1460   14.4090    9.0160 C.3    84  ALA84       0.0334
     59  N         -8.1260   15.1560   10.2580 N.am   85  PHE85      -0.1974
     60  CA        -7.0590   16.1550   10.4130 C.3    85  PHE85       0.1639
     61  C         -6.5800   16.4770   11.8390 C.2    85  PHE85       0.2290
     62  O         -5.4380   16.8460   12.0300 O.2    85  PHE85      -0.2864
     63  CB        -7.3870   17.4750    9.6540 C.3    85  PHE85       0.0560
     64  CG        -7.5780   17.3240    8.1670 C.ar   85  PHE85      -0.0200
     65  CD1       -6.4920   17.1320    7.3170 C.ar   85  PHE85      -0.0042
     66  CD2       -8.8610   17.4120    7.5980 C.ar   85  PHE85      -0.0042
     67  CE1       -6.6790   17.0240    5.9040 C.ar   85  PHE85      -0.0003
     68  CE2       -9.0630   17.3120    6.2100 C.ar   85  PHE85      -0.0003
     69  CZ        -7.9730   17.1150    5.3540 C.ar   85  PHE85      -0.0000
     70  N         -0.4640   19.2350    6.2520 N.3    96  SER96      -0.1217
     71  CA        -1.7780   19.7000    5.8000 C.3    96  SER96       0.1889
     72  C         -2.5120   20.4980    6.9070 C.2    96  SER96       0.2288
     73  O         -3.0400   21.5680    6.6300 O.2    96  SER96      -0.2866
     74  CB        -2.6710   18.5250    5.3190 C.3    96  SER96       0.2089
     75  OG        -2.2640   18.0430    4.0480 O.3    96  SER96      -0.2183
     76  N        -13.6100   11.5940    7.8150 N.3   131  ASN131     -0.1240
     77  CA       -12.8250   10.8980    6.7990 C.3   131  ASN131      0.1653
     78  C        -13.7950    9.8780    6.1290 C.2   131  ASN131      0.2266
     79  O        -14.6500    9.2900    6.8070 O.2   131  ASN131     -0.2867
     80  CB       -11.6560   10.0860    7.4420 C.3   131  ASN131      0.1155
     81  CG       -10.4800   10.9260    7.7870 C.2   131  ASN131      0.2627
     82  OD1      -10.1000   11.8080    7.0250 O.2   131  ASN131     -0.2716
     83  ND2       -9.8770   10.6620    8.9360 N.am  131  ASN131     -0.0877
     84  N         -6.3390   20.5080   -2.4480 N.3   194  HIS194     -0.1241
     85  CA        -5.9710   19.8530   -1.1850 C.3   194  HIS194      0.1621
     86  C         -5.1020   20.7780   -0.2930 C.2   194  HIS194      0.2264
     87  O         -4.3000   21.5570   -0.8270 O.2   194  HIS194     -0.2867
     88  CB        -5.2460   18.5280   -1.5210 C.3   194  HIS194      0.0745
     89  CG        -5.0880   17.6150   -0.3460 C.ar  194  HIS194      0.0817
     90  ND1       -4.0090   17.6790    0.5040 N.ar  194  HIS194     -0.2268
     91  CD2       -5.9040   16.6550    0.1530 C.ar  194  HIS194      0.1154
     92  CE1       -4.1730   16.8150    1.4880 C.ar  194  HIS194      0.1986
     93  NE2       -5.3170   16.1800    1.2950 N.ar  194  HIS194     -0.2212
@<TRIPOS>BOND
     1    84    85    1
     2    88    85    1
     3    88    89    1
     4    85    86    1
     5    87    86    2
     6    13    11   am
     7    89    91   ar
     8    89    90   ar
     9    91    93   ar
    10    90    92   ar
    11    11    10    1
    12    11    12    2
    13    10     9    1
    14    93    92   ar
    15     9     6    1
    16     6     5    1
    17     6     7    1
    18     4     3    2
    19     5     3   am
    20     3     2    1
    21    75    74    1
    22     7     8    2
    23     7    14   am
    24    20    19   ar
    25     2     1    1
    26    21    19   ar
    27    14    15    1
    28    19    18    1
    29    18    15    1
    30    74    71    1
    31    69    67   ar
    32    69    68   ar
    33    15    16    1
    34    71    70    1
    35    71    72    1
    36    67    65   ar
    37    78    77    1
    38    78    79    2
    39    68    66   ar
    40    73    72    2
    41    77    80    1
    42    77    76    1
    43    17    16    2
    44    16    22   am
    45    82    81    2
    46    65    64   ar
    47    80    81    1
    48    66    64   ar
    49    81    83   am
    50    22    28    1
    51    22    23    1
    52    64    63    1
    53    25    24    2
    54    28    27    1
    55    58    55    1
    56    24    23    1
    57    24    29   am
    58    23    26    1
    59    63    60    1
    60    37    35   ar
    61    37    39   ar
    62    27    26    1
    63    35    34   ar
    64    29    30    1
    65    30    31    1
    66    30    33    1
    67    59    60    1
    68    59    56   am
    69    55    56    1
    70    55    54    1
    71    40    39    1
    72    60    61    1
    73    31    32    2
    74    56    57    2
    75    39    38   ar
    76    34    33    1
    77    34    36   ar
    78    54    48   am
    79    38    36   ar
    80    61    62    2
    81    48    49    2
    82    48    47    1
    83    45    42    1
    84    47    46    1
    85    47    50    1
    86    50    51    1
    87    42    41    1
    88    42    43    1
    89    53    51    1
    90    51    52    1
    91    43    44    2
