@<TRIPOS>MOLECULE
tmp/1uduA00.pdb
 163 153 0 0 0
SMALL
GASTEIGER

@<TRIPOS>ATOM
      1  N         27.6090   41.0060   95.0570 N.3    76  TYR76      -0.1241
      2  CA        27.5840   40.1380   96.2330 C.3    76  TYR76       0.1605
      3  C         27.9520   38.7470   95.7640 C.2    76  TYR76       0.2264
      4  O         28.9870   38.2040   96.1360 O.2    76  TYR76      -0.2867
      5  CB        26.1940   40.0860   96.8580 C.3    76  TYR76       0.0534
      6  CG        26.1400   39.1590   98.0410 C.ar   76  TYR76      -0.0201
      7  CD1       26.7240   39.5110   99.2560 C.ar   76  TYR76      -0.0009
      8  CD2       25.5520   37.9110   97.9370 C.ar   76  TYR76      -0.0009
      9  CE1       26.7230   38.6320  100.3450 C.ar   76  TYR76       0.0417
     10  CE2       25.5460   37.0210   99.0190 C.ar   76  TYR76       0.0417
     11  CZ        26.1320   37.3870  100.2200 C.ar   76  TYR76       0.1957
     12  OH        26.1150   36.5110  101.2890 O.3    76  TYR76      -0.2866
     13  N         15.4440   35.5800   94.8630 N.3   126  ASN126     -0.1225
     14  CA        14.0540   35.5190   95.3020 C.3   126  ASN126      0.1785
     15  C         13.7820   36.2900   96.5880 C.2   126  ASN126      0.2597
     16  O         14.4050   37.3120   96.8620 O.2   126  ASN126     -0.2718
     17  CB        13.6550   34.0620   95.5000 C.3   126  ASN126      0.1169
     18  CG        13.8920   33.2190   94.2580 C.2   126  ASN126      0.2627
     19  OD1       13.6600   32.0120   94.2660 O.2   126  ASN126     -0.2716
     20  ND2       14.3510   33.8500   93.1850 N.am  126  ASN126     -0.0877
     21  N         12.8190   35.8040   97.3600 N.am  127  SER127     -0.1952
     22  CA        12.4670   36.4190   98.6350 C.3   127  SER127      0.1924
     23  C         11.5740   35.4780   99.4370 C.2   127  SER127      0.2314
     24  O         11.3450   35.6970  100.6290 O.2   127  SER127     -0.2863
     25  CB        11.7820   37.7820   98.4410 C.3   127  SER127      0.2116
     26  OG        10.3790   37.6620   98.3060 O.3   127  SER127     -0.2180
     27  N         17.4610   28.1490  100.1140 N.3   178  LEU178     -0.1245
     28  CA        16.7300   28.2920  101.3710 C.3   178  LEU178      0.1561
     29  C         15.3530   27.6580  101.3370 C.2   178  LEU178      0.2260
     30  O         14.8560   27.2070  102.3520 O.2   178  LEU178     -0.2867
     31  CB        16.5370   29.7530  101.7220 C.3   178  LEU178      0.0270
     32  CG        17.7200   30.6750  101.9700 C.3   178  LEU178      0.0019
     33  CD1       18.6470   30.7650  100.7490 C.3   178  LEU178      0.0001
     34  CD2       17.1360   32.0380  102.3320 C.3   178  LEU178      0.0001
     35  N         25.0640   32.1150  104.4720 N.3   218  LEU218     -0.1245
     36  CA        24.7950   33.3520  105.2250 C.3   218  LEU218      0.1561
     37  C         25.9760   33.7790  106.0760 C.2   218  LEU218      0.2260
     38  O         25.8540   34.7290  106.8440 O.2   218  LEU218     -0.2867
     39  CB        23.5970   33.1760  106.1760 C.3   218  LEU218      0.0270
     40  CG        22.2160   32.7220  105.6860 C.3   218  LEU218      0.0019
     41  CD1       22.3810   31.7280  104.5860 C.3   218  LEU218      0.0001
     42  CD2       21.4060   32.1020  106.8290 C.3   218  LEU218      0.0001
     43  N         28.3850   35.7310  106.2610 N.3   220  ALA220     -0.1231
     44  CA        28.5510   37.1420  106.5620 C.3   220  ALA220      0.1694
     45  C         27.5170   37.7560  107.4820 C.2   220  ALA220      0.2591
     46  O         27.7430   38.8470  108.0000 O.2   220  ALA220     -0.2718
     47  CB        28.6090   37.9400  105.2660 C.3   220  ALA220      0.0304
     48  N         26.3890   37.0880  107.7020 N.am  221  ILE221     -0.1980
     49  CA        25.3630   37.6830  108.5670 C.3   221  ILE221      0.1595
     50  C         25.7410   37.6680  110.0380 C.2   221  ILE221      0.2287
     51  O         25.1410   38.3770  110.8370 O.2   221  ILE221     -0.2864
     52  CB        23.9580   37.0110  108.3800 C.3   221  ILE221      0.0276
     53  CG1       22.8940   37.7320  109.2300 C.3   221  ILE221      0.0022
     54  CG2       24.0190   35.5460  108.7650 C.3   221  ILE221      0.0022
     55  CD1       22.7880   39.2320  109.0070 C.3   221  ILE221      0.0001
     56  N         30.1510   42.8830  108.4050 N.3   228  GLN228     -0.1245
     57  CA        28.7640   42.5250  108.0530 C.3   228  GLN228      0.1566
     58  C         28.0030   43.6150  107.3120 C.2   228  GLN228      0.2260
     59  O         27.4070   43.3760  106.2660 O.2   228  GLN228     -0.2867
     60  CB        27.9810   42.1170  109.3180 C.3   228  GLN228      0.0367
     61  CG        26.6630   42.8700  109.5530 C.3   228  GLN228      0.0905
     62  CD        25.5180   42.4420  108.6230 C.2   228  GLN228      0.2608
     63  OE1       24.5950   43.2120  108.3710 O.2   228  GLN228     -0.2717
     64  NE2       25.5700   41.2100  108.1350 N.am  228  GLN228     -0.0878
     65  N         28.8870   44.4330  103.8510 N.3   231  ILE231     -0.1231
     66  CA        28.3580   43.4580  102.9030 C.3   231  ILE231      0.1692
     67  C         26.8800   43.6310  102.6020 C.2   231  ILE231      0.2591
     68  O         26.4820   43.5660  101.4470 O.2   231  ILE231     -0.2718
     69  CB        28.6000   42.0320  103.4150 C.3   231  ILE231      0.0266
     70  CG1       30.0790   41.6830  103.2410 C.3   231  ILE231      0.0019
     71  CG2       27.6780   41.0450  102.7050 C.3   231  ILE231      0.0020
     72  CD1       30.4560   40.3080  103.7400 C.3   231  ILE231      0.0001
     73  N         26.0670   43.8490  103.6310 N.am  232  ALA232     -0.1980
     74  CA        24.6350   44.0390  103.4320 C.3   232  ALA232      0.1597
     75  C         24.3260   45.1960  102.4560 C.2   232  ALA232      0.2287
     76  O         23.2850   45.1890  101.8000 O.2   232  ALA232     -0.2864
     77  CB        23.9580   44.2730  104.7680 C.3   232  ALA232      0.0319
     78  N         24.8080   43.3580   99.1400 N.3   235  VAL235     -0.1231
     79  CA        23.6690   42.5250   98.8340 C.3   235  VAL235      0.1692
     80  C         22.5150   43.4830   98.5190 C.2   235  VAL235      0.2591
     81  O         21.6960   43.2260   97.6410 O.2   235  VAL235     -0.2718
     82  CB        23.3330   41.6160  100.0300 C.3   235  VAL235      0.0266
     83  CG1       22.2370   42.2430  100.9060 C.3   235  VAL235      0.0020
     84  CG2       22.9330   40.2670   99.5250 C.3   235  VAL235      0.0020
     85  N         22.4670   44.6000   99.2340 N.am  236  ALA236     -0.1980
     86  CA        21.4350   45.6090   99.0120 C.3   236  ALA236      0.1597
     87  C         21.5380   46.1370   97.5750 C.2   236  ALA236      0.2287
     88  O         20.5510   46.1860   96.8290 O.2   236  ALA236     -0.2864
     89  CB        21.6110   46.7620  100.0100 C.3   236  ALA236      0.0319
     90  N         20.1040   43.6000   95.2970 N.3   239  PHE239     -0.1227
     91  CA        18.6500   43.5010   95.4790 C.3   239  PHE239      0.1736
     92  C         17.9100   44.6800   94.9260 C.2   239  PHE239      0.2595
     93  O         16.7460   44.5670   94.5670 O.2   239  PHE239     -0.2718
     94  CB        18.2670   43.3610   96.9470 C.3   239  PHE239      0.0547
     95  CG        18.2860   41.9480   97.4480 C.ar  239  PHE239     -0.0202
     96  CD1       17.4300   41.5550   98.4740 C.ar  239  PHE239     -0.0042
     97  CD2       19.1570   41.0080   96.9020 C.ar  239  PHE239     -0.0042
     98  CE1       17.4360   40.2530   98.9440 C.ar  239  PHE239     -0.0003
     99  CE2       19.1720   39.7010   97.3670 C.ar  239  PHE239     -0.0003
    100  CZ        18.3080   39.3210   98.3910 C.ar  239  PHE239     -0.0000
    101  N         18.5760   45.8240   94.8800 N.am  240  PHE240     -0.1976
    102  CA        17.9490   47.0170   94.3380 C.3   240  PHE240      0.1639
    103  C         18.1120   47.0450   92.8180 C.2   240  PHE240      0.2290
    104  O         17.1510   47.2760   92.1010 O.2   240  PHE240     -0.2864
    105  CB        18.5370   48.2720   94.9990 C.3   240  PHE240      0.0560
    106  CG        18.1050   48.4610   96.4450 C.ar  240  PHE240     -0.0200
    107  CD1       17.4320   47.4500   97.1300 C.ar  240  PHE240     -0.0042
    108  CD2       18.3720   49.6500   97.1180 C.ar  240  PHE240     -0.0042
    109  CE1       17.0340   47.6210   98.4470 C.ar  240  PHE240     -0.0003
    110  CE2       17.9770   49.8270   98.4440 C.ar  240  PHE240     -0.0003
    111  CZ        17.3080   48.8080   99.1010 C.ar  240  PHE240     -0.0000
    112  N         12.0570   44.5800   99.4060 N.3   257  LEU257     -0.1245
    113  CA        13.4130   44.0760   99.5370 C.3   257  LEU257      0.1561
    114  C         14.2100   44.5020   98.3080 C.2   257  LEU257      0.2260
    115  O         15.4100   44.7120   98.3850 O.2   257  LEU257     -0.2867
    116  CB        13.3950   42.5460   99.6200 C.3   257  LEU257      0.0270
    117  CG        14.6200   41.7650  100.1140 C.3   257  LEU257      0.0019
    118  CD1       14.8450   42.0630  101.5540 C.3   257  LEU257      0.0001
    119  CD2       14.3860   40.2800   99.9720 C.3   257  LEU257      0.0001
    120  N         15.3820   48.8810  105.5180 N.3   266  ILE266     -0.1245
    121  CA        16.3090   47.7770  105.2970 C.3   266  ILE266      0.1561
    122  C         16.6300   47.0670  106.6090 C.2   266  ILE266      0.2260
    123  O         16.8680   45.8570  106.6180 O.2   266  ILE266     -0.2867
    124  CB        17.6440   48.2210  104.6310 C.3   266  ILE266      0.0252
    125  CG1       18.4010   49.1950  105.5310 C.3   266  ILE266      0.0019
    126  CG2       17.3710   48.8320  103.2760 C.3   266  ILE266      0.0019
    127  CD1       19.7700   49.5780  105.0070 C.3   266  ILE266      0.0001
    128  N         14.1480   44.4890  107.7000 N.3   269  MET269     -0.1230
    129  CA        14.1190   43.4820  106.6610 C.3   269  MET269      0.1702
    130  C         15.3140   42.5980  106.9310 C.2   269  MET269      0.2592
    131  O         15.3290   41.4270  106.5560 O.2   269  MET269     -0.2718
    132  CB        14.2460   44.1220  105.2830 C.3   269  MET269      0.0401
    133  CG        13.0380   44.9140  104.8240 C.3   269  MET269      0.0596
    134  SD        13.1870   45.3040  103.0810 S.3   269  MET269     -0.1393
    135  CE        13.9710   46.8430  103.1690 C.3   269  MET269      0.0692
    136  N         16.3190   43.1950  107.5760 N.am  270  GLN270     -0.1979
    137  CA        17.5520   42.5120  107.9700 C.3   270  GLN270      0.1601
    138  C         17.2340   41.7640  109.2540 C.2   270  GLN270      0.2287
    139  O         17.7000   40.6530  109.4880 O.2   270  GLN270     -0.2864
    140  CB        18.6510   43.5370  108.2260 C.3   270  GLN270      0.0394
    141  CG        19.2330   44.1370  106.9680 C.3   270  GLN270      0.0908
    142  CD        20.2940   43.2550  106.3350 C.2   270  GLN270      0.2608
    143  OE1       20.2510   42.0220  106.4550 O.2   270  GLN270     -0.2717
    144  NE2       21.2500   43.8830  105.6440 N.am  270  GLN270     -0.0878
    145  N         14.7360   38.7100  108.7900 N.3   273  PHE273     -0.1241
    146  CA        15.5260   37.6490  108.1510 C.3   273  PHE273      0.1605
    147  C         16.0850   36.7280  109.2400 C.2   273  PHE273      0.2264
    148  O         15.7310   35.5410  109.3590 O.2   273  PHE273     -0.2867
    149  CB        16.6700   38.3160  107.3570 C.3   273  PHE273      0.0534
    150  CG        17.6010   37.3600  106.6590 C.ar  273  PHE273     -0.0203
    151  CD1       17.1130   36.2970  105.9140 C.ar  273  PHE273     -0.0042
    152  CD2       18.9710   37.5640  106.6980 C.ar  273  PHE273     -0.0042
    153  CE1       17.9840   35.4520  105.2150 C.ar  273  PHE273     -0.0003
    154  CE2       19.8470   36.7290  106.0050 C.ar  273  PHE273     -0.0003
    155  CZ        19.3540   35.6740  105.2630 C.ar  273  PHE273     -0.0000
    156  N         15.0860   33.1950  109.6030 N.3   277  ILE277     -0.1245
    157  CA        16.0780   32.2100  109.1650 C.3   277  ILE277      0.1561
    158  C         17.4030   32.0680  109.9410 C.2   277  ILE277      0.2260
    159  O         17.7540   30.9730  110.3910 O.2   277  ILE277     -0.2867
    160  CB        16.4380   32.4670  107.6740 C.3   277  ILE277      0.0252
    161  CG1       15.2160   33.0150  106.9300 C.3   277  ILE277      0.0019
    162  CG2       16.8480   31.1740  106.9990 C.3   277  ILE277      0.0019
    163  CD1       15.4380   33.2400  105.4660 C.3   277  ILE277      0.0001
@<TRIPOS>BOND
     1   104   103    2
     2   103   102    1
     3    20    18   am
     4    18    19    2
     5    18    17    1
     6   102   101    1
     7   102   105    1
     8    93    92    2
     9    13    14    1
    10   101    92   am
    11    92    91    1
    12   105   106    1
    13     1     2    1
    14    90    91    1
    15    14    17    1
    16    14    15    1
    17    91    94    1
    18     3     4    2
    19     3     2    1
    20     2     5    1
    21   106   108   ar
    22   106   107   ar
    23    15    16    2
    24    15    21   am
    25    88    87    2
    26     5     6    1
    27    97    99   ar
    28    97    95   ar
    29    94    95    1
    30   108   110   ar
    31   107   109   ar
    32    21    22    1
    33    99   100   ar
    34    95    96   ar
    35    87    86    1
    36    81    80    2
    37     8     6   ar
    38     8    10   ar
    39     6     7   ar
    40    26    25    1
    41   114   115    2
    42   114   113    1
    43   100    98   ar
    44    25    22    1
    45   110   111   ar
    46   109   111   ar
    47    96    98   ar
    48    80    79    1
    49    80    85   am
    50    22    23    1
    51    79    78    1
    52    79    82    1
    53    86    85    1
    54    86    89    1
    55    10    11   ar
    56     7     9   ar
    57   112   113    1
    58    23    24    2
    59    84    82    1
    60   113   116    1
    61   116   117    1
    62   119   117    1
    63    82    83    1
    64    27    28    1
    65   117   118    1
    66    11     9   ar
    67    11    12    1
    68    33    32    1
    69    29    28    1
    70    29    30    2
    71    28    31    1
    72    68    67    2
    73    31    32    1
    74    76    75    2
    75    32    34    1
    76    75    74    1
    77    67    66    1
    78    67    73   am
    79    71    69    1
    80    66    69    1
    81    66    65    1
    82   134   135    1
    83   134   133    1
    84    70    69    1
    85    70    72    1
    86   126   124    1
    87    74    73    1
    88    74    77    1
    89    35    36    1
    90    41    40    1
    91   124   121    1
    92   124   125    1
    93   133   132    1
    94   127   125    1
    95   153   155   ar
    96   153   151   ar
    97    36    37    1
    98    36    39    1
    99   155   154   ar
   100    47    44    1
   101   132   129    1
   102   121   120    1
   103   121   122    1
   104   163   161    1
   105   144   142   am
   106    40    39    1
   107    40    42    1
   108   151   150   ar
   109   154   152   ar
   110    37    38    2
   111    43    44    1
   112    59    58    2
   113   142   143    2
   114   142   141    1
   115   131   130    2
   116    44    45    1
   117   122   123    2
   118   150   152   ar
   119   150   149    1
   120   129   130    1
   121   129   128    1
   122   161   160    1
   123   130   136   am
   124   141   140    1
   125   162   160    1
   126    58    57    1
   127   149   146    1
   128    45    48   am
   129    45    46    2
   130   136   137    1
   131   160   157    1
   132    48    49    1
   133   137   140    1
   134   137   138    1
   135    57    56    1
   136    57    60    1
   137    64    62   am
   138   146   145    1
   139   146   147    1
   140    63    62    2
   141    52    49    1
   142    52    54    1
   143    52    53    1
   144    49    50    1
   145    62    61    1
   146    55    53    1
   147   157   156    1
   148   157   158    1
   149   147   148    2
   150   138   139    2
   151    60    61    1
   152   158   159    2
   153    50    51    2
