@<TRIPOS>MOLECULE
tmp/1udxA00.pdb
 104 99 0 0 0
SMALL
GASTEIGER

@<TRIPOS>ATOM
      1  N         14.3570   24.0540   -6.3650 N.3    50  GLY50      -0.1225
      2  CA        14.0590   25.4340   -6.0310 C.3    50  GLY50       0.1811
      3  C         14.3490   26.4210   -7.1450 C.2    50  GLY50       0.2280
      4  O         13.7630   27.4990   -7.1810 O.2    50  GLY50      -0.2866
      5  N         11.2010   27.8450  -11.5370 N.3    53  ASP53      -0.1239
      6  CA        10.1380   28.6780  -10.9970 C.3    53  ASP53       0.1674
      7  C          8.7090   28.2680  -11.3110 C.2    53  ASP53       0.2266
      8  O          7.8380   28.3480  -10.4460 O.2    53  ASP53      -0.2867
      9  CB        10.3450   30.1270  -11.4030 C.3    53  ASP53       0.1410
     10  CG         9.4640   31.0690  -10.6080 C.2    53  ASP53       0.3668
     11  OD1        9.2790   30.8280   -9.3920 O.co2  53  ASP53      -0.2456
     12  OD2        8.9660   32.0450  -11.1930 O.co2  53  ASP53      -0.2456
     13  N          9.1700   22.7340  -10.1300 N.3    89  PRO89      -0.2102
     14  CA         9.3750   23.6260   -8.9810 C.3    89  PRO89       0.1504
     15  C          9.0970   22.9340   -7.6580 C.2    89  PRO89       0.2575
     16  O          8.4480   21.8850   -7.6210 O.2    89  PRO89      -0.2718
     17  CB         8.3610   24.7510   -9.2240 C.3    89  PRO89       0.0282
     18  CG         8.1520   24.7350  -10.7050 C.3    89  PRO89       0.0208
     19  CD         8.1090   23.2520  -11.0070 C.3    89  PRO89       0.0893
     20  N          9.6090   23.5040   -6.5710 N.am   90  ARG90      -0.1980
     21  CA         9.3080   22.9600   -5.2530 C.3    90  ARG90       0.1597
     22  C          7.8580   23.4090   -5.0910 C.2    90  ARG90       0.2287
     23  O          7.4830   24.4770   -5.5940 O.2    90  ARG90      -0.2864
     24  CB        10.1780   23.6030   -4.1670 C.3    90  ARG90       0.0334
     25  CG        11.6240   23.1190   -4.1410 C.3    90  ARG90       0.0492
     26  CD        12.4060   23.8140   -3.0360 C.3    90  ARG90       0.2205
     27  NE        11.7990   23.6030   -1.7250 N.pl3  90  ARG90      -0.0865
     28  CZ        12.2620   24.1220   -0.5940 C.cat  90  ARG90       0.5346
     29  NH1       13.3460   24.8880   -0.6130 N.pl3  90  ARG90       0.1354
     30  NH2       11.6400   23.8820    0.5550 N.pl3  90  ARG90       0.1354
     31  N         -0.0240   29.5860   -1.8670 N.3   157  ILE157     -0.1245
     32  CA         0.1700   29.9290   -0.4630 C.3   157  ILE157      0.1561
     33  C         -1.1480   30.5530    0.0250 C.2   157  ILE157      0.2260
     34  O         -1.4170   30.5880    1.2250 O.2   157  ILE157     -0.2867
     35  CB         1.3330   30.9390   -0.2290 C.3   157  ILE157      0.0252
     36  CG1        1.1120   32.2120   -1.0540 C.3   157  ILE157      0.0019
     37  CG2        2.6680   30.2640   -0.5190 C.3   157  ILE157      0.0019
     38  CD1        1.9840   33.4060   -0.6020 C.3   157  ILE157      0.0001
     39  N          7.2180   24.1220    1.1460 N.3   189  PHE189     -0.1227
     40  CA         7.8010   24.5140   -0.1300 C.3   189  PHE189      0.1736
     41  C          8.2190   25.9790   -0.2270 C.2   189  PHE189      0.2596
     42  O          8.6990   26.4150   -1.2670 O.2   189  PHE189     -0.2718
     43  CB         6.8260   24.1660   -1.2610 C.3   189  PHE189      0.0547
     44  CG         5.5340   24.9250   -1.2090 C.ar  189  PHE189     -0.0202
     45  CD1        5.3810   26.1110   -1.9210 C.ar  189  PHE189     -0.0042
     46  CD2        4.4650   24.4560   -0.4450 C.ar  189  PHE189     -0.0042
     47  CE1        4.1790   26.8230   -1.8790 C.ar  189  PHE189     -0.0003
     48  CE2        3.2620   25.1570   -0.3940 C.ar  189  PHE189     -0.0003
     49  CZ         3.1190   26.3450   -1.1160 C.ar  189  PHE189     -0.0000
     50  N          8.0520   26.7280    0.8600 N.am  190  THR190     -0.1939
     51  CA         8.4100   28.1470    0.8790 C.3   190  THR190      0.2028
     52  C          9.6710   28.4020    1.7200 C.2   190  THR190      0.2642
     53  O         10.0290   27.6000    2.5860 O.2   190  THR190     -0.2714
     54  CB         7.2600   29.0090    1.4780 C.3   190  THR190      0.1808
     55  OG1        7.0290   28.6200    2.8400 O.3   190  THR190     -0.2208
     56  CG2        5.9690   28.8130    0.6950 C.3   190  THR190      0.0379
     57  N         10.3420   29.5200    1.4550 N.am  191  THR191     -0.1950
     58  CA        11.5260   29.8900    2.2220 C.3   191  THR191      0.1897
     59  C         11.1740   31.1060    3.0820 C.2   191  THR191      0.2313
     60  O         11.9360   31.4990    3.9610 O.2   191  THR191     -0.2863
     61  CB        12.7320   30.2220    1.3120 C.3   191  THR191      0.1794
     62  OG1       12.3730   31.2600    0.4000 O.3   191  THR191     -0.2208
     63  CG2       13.1660   28.9850    0.5260 C.3   191  THR191      0.0378
     64  N         12.6060   37.0120   -4.2960 N.3   228  GLU228     -0.1245
     65  CA        12.1620   35.9490   -3.4110 C.3   228  GLU228      0.1567
     66  C         10.7140   36.1640   -2.9960 C.2   228  GLU228      0.2260
     67  O          9.9250   35.2180   -2.9460 O.2   228  GLU228     -0.2867
     68  CB        13.0560   35.8730   -2.1720 C.3   228  GLU228      0.0388
     69  CG        12.6610   34.7620   -1.2120 C.3   228  GLU228      0.1160
     70  CD        13.5860   34.6690   -0.0130 C.2   228  GLU228      0.3649
     71  OE1       14.2410   35.6850    0.2940 O.co2 228  GLU228     -0.2457
     72  OE2       13.6500   33.5910    0.6240 O.co2 228  GLU228     -0.2457
     73  N          8.4630   35.4790   -6.0460 N.3   231  ARG231     -0.1231
     74  CA         8.3020   34.0670   -6.3550 C.3   231  ARG231      0.1694
     75  C          7.3110   33.4340   -5.3840 C.2   231  ARG231      0.2592
     76  O          6.6530   32.4490   -5.7200 O.2   231  ARG231     -0.2718
     77  CB         9.6510   33.3440   -6.3100 C.3   231  ARG231      0.0321
     78  CG        10.6000   33.7490   -7.4490 C.3   231  ARG231      0.0489
     79  CD        11.8330   32.8670   -7.4440 C.3   231  ARG231      0.2205
     80  NE        11.4610   31.4920   -7.7450 N.pl3 231  ARG231     -0.0865
     81  CZ        12.2170   30.4330   -7.4950 C.cat 231  ARG231      0.5346
     82  NH1       13.4080   30.5750   -6.9280 N.pl3 231  ARG231      0.1354
     83  NH2       11.7770   29.2260   -7.8170 N.pl3 231  ARG231      0.1354
     84  N          7.1960   34.0010   -4.1810 N.am  232  HIS232     -0.1976
     85  CA         6.2460   33.4880   -3.2010 C.3   232  HIS232      0.1656
     86  C          4.8400   33.9980   -3.5220 C.2   232  HIS232      0.2291
     87  O          3.8800   33.2190   -3.5460 O.2   232  HIS232     -0.2864
     88  CB         6.6340   33.9080   -1.7710 C.3   232  HIS232      0.0771
     89  CG         7.7470   33.0960   -1.1800 C.ar  232  HIS232      0.0820
     90  ND1        9.0490   33.1780   -1.6250 N.ar  232  HIS232     -0.2267
     91  CD2        7.7440   32.1600   -0.2000 C.ar  232  HIS232      0.1154
     92  CE1        9.7990   32.3280   -0.9460 C.ar  232  HIS232      0.1986
     93  NE2        9.0320   31.6970   -0.0750 N.ar  232  HIS232     -0.2212
     94  N          2.5300   32.4450   -6.1050 N.3   235  ARG235     -0.1245
     95  CA         1.7100   31.2900   -5.7540 C.3   235  ARG235      0.1563
     96  C          0.3550   31.6790   -5.1540 C.2   235  ARG235      0.2260
     97  O         -0.0140   31.2130   -4.0700 O.2   235  ARG235     -0.2867
     98  CB         2.4450   30.3800   -4.7710 C.3   235  ARG235      0.0307
     99  CG         3.7730   29.8350   -5.2820 C.3   235  ARG235      0.0489
    100  CD         3.6420   29.1790   -6.6530 C.3   235  ARG235      0.2205
    101  NE         4.8570   28.4540   -7.0190 N.pl3 235  ARG235     -0.0865
    102  CZ         5.1140   27.1950   -6.6860 C.cat 235  ARG235      0.5346
    103  NH1        4.2370   26.4870   -5.9800 N.pl3 235  ARG235      0.1354
    104  NH2        6.2660   26.6460   -7.0410 N.pl3 235  ARG235      0.1354
@<TRIPOS>BOND
     1     5     6    1
     2     9     6    1
     3     9    10    1
     4     7     6    1
     5     7     8    2
     6    12    10   ar
     7    19    18    1
     8    19    13    1
     9    18    17    1
    10    10    11   ar
    11    13    14    1
    12    17    14    1
    13    14    15    1
    14    83    81    1
    15    80    81    2
    16    80    79    1
    17    15    16    2
    18    15    20   am
    19    81    82    1
    20    78    79    1
    21    78    77    1
    22     4     3    2
    23     3     2    1
    24   104   102    1
    25   101   102    2
    26   101   100    1
    27   102   103    1
    28   100    99    1
    29    20    21    1
    30     1     2    1
    31    74    77    1
    32    74    73    1
    33    74    75    1
    34    94    95    1
    35    95    96    1
    36    95    98    1
    37    76    75    2
    38    23    22    2
    39    75    84   am
    40    99    98    1
    41    21    22    1
    42    21    24    1
    43    96    97    2
    44    64    65    1
    45    84    85    1
    46    24    25    1
    47    25    26    1
    48    87    86    2
    49    86    85    1
    50    65    66    1
    51    65    68    1
    52    85    88    1
    53    26    27    1
    54    66    67    2
    55    68    69    1
    56    45    47   ar
    57    45    44   ar
    58    47    49   ar
    59    31    32    1
    60    88    89    1
    61    27    28    2
    62    90    89   ar
    63    90    92   ar
    64    42    41    2
    65    43    44    1
    66    43    40    1
    67    69    70    1
    68    44    46   ar
    69    89    91   ar
    70    49    48   ar
    71    36    38    1
    72    36    35    1
    73    92    93   ar
    74    29    28    1
    75    28    30    1
    76    37    35    1
    77    32    35    1
    78    32    33    1
    79    46    48   ar
    80    41    40    1
    81    41    50   am
    82    91    93   ar
    83    40    39    1
    84    70    71   ar
    85    70    72   ar
    86    33    34    2
    87    62    61    1
    88    63    61    1
    89    56    54    1
    90    50    51    1
    91    51    54    1
    92    51    52    1
    93    61    58    1
    94    57    52   am
    95    57    58    1
    96    54    55    1
    97    52    53    2
    98    58    59    1
    99    59    60    2
