@<TRIPOS>MOLECULE
tmp/1uedB01.pdb
 126 121 0 0 0
SMALL
GASTEIGER

@<TRIPOS>ATOM
      1  N         18.1880   -7.7000   97.2020 N.3    75  THR75      -0.1218
      2  CA        17.6250   -6.6030   96.4250 C.3    75  THR75       0.1862
      3  C         17.4820   -7.0750   94.9820 C.2    75  THR75       0.2287
      4  O         17.2550   -6.2680   94.0630 O.2    75  THR75      -0.2866
      5  CB        18.4890   -5.2940   96.4840 C.3    75  THR75       0.1770
      6  OG1       19.8600   -5.5960   96.2040 O.3    75  THR75      -0.2211
      7  CG2       18.3570   -4.6600   97.8690 C.3    75  THR75       0.0375
      8  N         15.5860   -8.3100   91.9880 N.3    77  PRO77      -0.2116
      9  CA        14.1940   -8.1190   91.5660 C.3    77  PRO77       0.1372
     10  C         13.3660   -9.3920   91.3360 C.2    77  PRO77       0.2244
     11  O         13.9000  -10.4960   91.2470 O.2    77  PRO77      -0.2868
     12  CB        14.3470   -7.2920   90.2960 C.3    77  PRO77       0.0268
     13  CG        15.6220   -7.8530   89.7190 C.3    77  PRO77       0.0207
     14  CD        16.5110   -7.8430   90.9390 C.3    77  PRO77       0.0892
     15  N         18.4850   -6.6960   84.0320 N.3    80  PHE80      -0.1241
     16  CA        19.0570   -6.1320   85.2470 C.3    80  PHE80       0.1605
     17  C         20.5280   -6.4880   85.3390 C.2    80  PHE80       0.2264
     18  O         21.1590   -6.2680   86.3720 O.2    80  PHE80      -0.2867
     19  CB        18.3310   -6.6800   86.4740 C.3    80  PHE80       0.0534
     20  CG        17.0600   -5.9630   86.7860 C.ar   80  PHE80      -0.0203
     21  CD1       17.0810   -4.7620   87.4930 C.ar   80  PHE80      -0.0042
     22  CD2       15.8410   -6.4580   86.3380 C.ar   80  PHE80      -0.0042
     23  CE1       15.8930   -4.0580   87.7460 C.ar   80  PHE80      -0.0003
     24  CE2       14.6530   -5.7640   86.5840 C.ar   80  PHE80      -0.0003
     25  CZ        14.6820   -4.5610   87.2900 C.ar   80  PHE80      -0.0000
     26  N         23.2180   -4.0600   86.7960 N.3    83  GLN83      -0.1231
     27  CA        22.5100   -3.1610   87.7040 C.3    83  GLN83       0.1698
     28  C         22.9560   -3.4760   89.1240 C.2    83  GLN83       0.2592
     29  O         22.2270   -4.0700   89.9210 O.2    83  GLN83      -0.2718
     30  CB        21.0000   -3.3590   87.5540 C.3    83  GLN83       0.0381
     31  CG        20.4710   -2.8380   86.2510 C.3    83  GLN83       0.0905
     32  CD        20.6010   -1.3290   86.1110 C.2    83  GLN83       0.2608
     33  OE1       20.4120   -0.7970   85.0280 O.2    83  GLN83      -0.2717
     34  NE2       20.9110   -0.6320   87.2070 N.am   83  GLN83      -0.0878
     35  N         24.1670   -3.0350   89.4260 N.am   84  ILE84      -0.1966
     36  CA        24.8190   -3.3050   90.7040 C.3    84  ILE84       0.1727
     37  C         24.0000   -3.1660   92.0010 C.2    84  ILE84       0.2617
     38  O         24.1930   -3.9600   92.9410 O.2    84  ILE84      -0.2715
     39  CB        26.1460   -2.4760   90.7870 C.3    84  ILE84       0.0290
     40  CG1       26.9380   -2.8520   92.0400 C.3    84  ILE84       0.0022
     41  CG2       25.8250   -0.9760   90.7940 C.3    84  ILE84       0.0023
     42  CD1       28.3270   -2.2560   92.0770 C.3    84  ILE84       0.0001
     43  N         23.0880   -2.1980   92.0730 N.am   85  SER85      -0.1936
     44  CA        22.3310   -2.0390   93.3200 C.3    85  SER85       0.2055
     45  C         21.4140   -3.2190   93.5940 C.2    85  SER85       0.2643
     46  O         20.9730   -3.4050   94.7360 O.2    85  SER85      -0.2714
     47  CB        21.5010   -0.7510   93.3200 C.3    85  SER85       0.2130
     48  OG        20.4540   -0.7950   92.3640 O.3    85  SER85      -0.2179
     49  N         21.1390   -4.0220   92.5630 N.am   86  THR86      -0.1950
     50  CA        20.2490   -5.1710   92.7160 C.3    86  THR86       0.1897
     51  C         20.9660   -6.5100   92.8890 C.2    86  THR86       0.2313
     52  O         20.3310   -7.5700   92.9020 O.2    86  THR86      -0.2863
     53  CB        19.2480   -5.2470   91.5270 C.3    86  THR86       0.1794
     54  OG1       19.9190   -5.6780   90.3420 O.3    86  THR86      -0.2208
     55  CG2       18.6400   -3.8310   91.2710 C.3    86  THR86       0.0378
     56  N         23.2090    2.0190   85.4960 N.3   226  ALA226     -0.1245
     57  CA        23.1690    2.1910   86.9520 C.3   226  ALA226      0.1562
     58  C         23.7210    3.5690   87.3760 C.2   226  ALA226      0.2260
     59  O         23.1350    4.2460   88.2280 O.2   226  ALA226     -0.2867
     60  CB        23.9660    1.0670   87.6370 C.3   226  ALA226      0.0290
     61  N         21.2810    6.3770   86.2570 N.3   229  LEU229     -0.1231
     62  CA        20.1230    6.3820   87.1520 C.3   229  LEU229      0.1693
     63  C         20.4900    6.7160   88.5960 C.2   229  LEU229      0.2592
     64  O         19.6700    7.2320   89.3440 O.2   229  LEU229     -0.2718
     65  CB        19.4310    5.0250   87.1400 C.3   229  LEU229      0.0284
     66  CG        18.8000    4.6360   85.8080 C.3   229  LEU229      0.0019
     67  CD1       18.2680    3.2330   85.9140 C.3   229  LEU229      0.0001
     68  CD2       17.6890    5.6100   85.4440 C.3   229  LEU229      0.0001
     69  N         21.7100    6.4010   89.0020 N.am  230  GLY230     -0.1957
     70  CA        22.1010    6.7160   90.3620 C.3   230  GLY230      0.1869
     71  C         22.6680    8.1090   90.5050 C.2   230  GLY230      0.2309
     72  O         22.5700    8.6940   91.5790 O.2   230  GLY230     -0.2863
     73  N         19.9180   12.5030   91.2630 N.3   234  THR234     -0.1218
     74  CA        20.3260   12.7410   92.6420 C.3   234  THR234      0.1862
     75  C         21.1010   14.0390   92.7270 C.2   234  THR234      0.2287
     76  O         20.8450   14.8620   93.5930 O.2   234  THR234     -0.2866
     77  CB        21.2130   11.6340   93.1370 C.3   234  THR234      0.1770
     78  OG1       22.2340   11.3660   92.1560 O.3   234  THR234     -0.2211
     79  CG2       20.3610   10.3930   93.3780 C.3   234  THR234      0.0375
     80  N         17.1580   10.5440   97.6900 N.3   277  VAL277     -0.1245
     81  CA        16.8830    9.1280   97.5730 C.3   277  VAL277      0.1561
     82  C         16.1860    8.8610   98.8910 C.2   277  VAL277      0.2260
     83  O         16.8070    8.4200   99.8660 O.2   277  VAL277     -0.2867
     84  CB        18.1620    8.2720   97.4290 C.3   277  VAL277      0.0252
     85  CG1       17.7900    6.8050   97.1920 C.3   277  VAL277      0.0019
     86  CG2       19.0450    8.7980   96.3060 C.3   277  VAL277      0.0019
     87  N         15.2470    3.8290   99.0230 N.3   280  PRO280     -0.2102
     88  CA        16.0570    3.0220   98.1080 C.3   280  PRO280      0.1504
     89  C         15.2850    1.7570   97.7680 C.2   280  PRO280      0.2576
     90  O         14.1120    1.6050   98.1740 O.2   280  PRO280     -0.2718
     91  CB        17.3300    2.7290   98.9210 C.3   280  PRO280      0.0282
     92  CG        16.8150    2.6880  100.3370 C.3   280  PRO280      0.0208
     93  CD        15.7830    3.8120  100.4000 C.3   280  PRO280      0.0893
     94  N         15.9310    0.8670   97.0270 N.am  281  ASN281     -0.1961
     95  CA        15.3160   -0.4020   96.6350 C.3   281  ASN281      0.1804
     96  C         14.7260   -1.0920   97.8620 C.2   281  ASN281      0.2463
     97  O         15.3770   -1.1400   98.9180 O.2   281  ASN281     -0.2730
     98  CB        16.3550   -1.3690   96.0480 C.3   281  ASN281      0.1195
     99  CG        16.7260   -1.0660   94.5870 C.2   281  ASN281      0.2630
    100  OD1       17.8340   -1.3530   94.1620 O.2   281  ASN281     -0.2716
    101  ND2       15.7980   -0.5310   93.8280 N.am  281  ASN281     -0.0877
    102  N         13.4810   -1.5910   97.7520 N.am  282  PRO282     -0.2727
    103  CA        12.8880   -2.2880   98.9040 C.3   282  PRO282      0.1402
    104  C         13.7620   -3.5080   99.2020 C.2   282  PRO282      0.2269
    105  O         14.3430   -4.1010   98.2940 O.2   282  PRO282     -0.2865
    106  CB        11.5050   -2.7070   98.3870 C.3   282  PRO282      0.0296
    107  CG        11.1540   -1.5690   97.4320 C.3   282  PRO282      0.0237
    108  CD        12.4560   -1.3030   96.7200 C.3   282  PRO282      0.0939
    109  N         11.6740    7.9900   91.1690 N.3   380  PHE380     -0.1227
    110  CA        12.3820    7.2220   92.1960 C.3   380  PHE380      0.1736
    111  C         13.2660    8.0970   93.0800 C.2   380  PHE380      0.2595
    112  O         13.5840    7.7270   94.2190 O.2   380  PHE380     -0.2718
    113  CB        13.2720    6.1610   91.5630 C.3   380  PHE380      0.0547
    114  CG        12.5200    5.0840   90.8320 C.ar  380  PHE380     -0.0202
    115  CD1       11.8350    5.3680   89.6420 C.ar  380  PHE380     -0.0042
    116  CD2       12.5360    3.7670   91.3030 C.ar  380  PHE380     -0.0042
    117  CE1       11.1800    4.3450   88.9260 C.ar  380  PHE380     -0.0003
    118  CE2       11.8870    2.7360   90.5960 C.ar  380  PHE380     -0.0003
    119  CZ        11.2090    3.0290   89.4040 C.ar  380  PHE380     -0.0000
    120  N         13.6940    9.2360   92.5420 N.am  381  VAL381     -0.1980
    121  CA        14.5310   10.1860   93.2840 C.3   381  VAL381      0.1595
    122  C         13.7320   11.4790   93.3390 C.2   381  VAL381      0.2287
    123  O         13.2310   11.9310   92.3150 O.2   381  VAL381     -0.2864
    124  CB        15.8620   10.4420   92.5630 C.3   381  VAL381      0.0276
    125  CG1       16.6790   11.5220   93.3150 C.3   381  VAL381      0.0022
    126  CG2       16.6530    9.1390   92.5040 C.3   381  VAL381      0.0022
@<TRIPOS>BOND
     1    15    16    1
     2    33    32    2
     3    16    17    1
     4    16    19    1
     5    17    18    2
     6    68    66    1
     7    56    57    1
     8    66    67    1
     9    66    65    1
    10    32    31    1
    11    32    34   am
    12    31    30    1
    13    61    62    1
    14    22    24   ar
    15    22    20   ar
    16    19    20    1
    17    24    25   ar
    18    20    21   ar
    19    26    27    1
    20    57    58    1
    21    57    60    1
    22    65    62    1
    23    62    63    1
    24    25    23   ar
    25    58    59    2
    26    21    23   ar
    27    30    27    1
    28    27    28    1
    29    63    69   am
    30    63    64    2
    31   117   119   ar
    32   117   115   ar
    33    69    70    1
    34    28    35   am
    35    28    29    2
    36   119   118   ar
    37    35    36    1
    38   115   114   ar
    39    13    12    1
    40    13    14    1
    41    12     9    1
    42    54    53    1
    43    70    71    1
    44    71    72    2
    45   118   116   ar
    46    36    39    1
    47    36    37    1
    48    39    41    1
    49    39    40    1
    50   114   116   ar
    51   114   113    1
    52    14     8    1
    53   109   110    1
    54    11    10    2
    55    73    74    1
    56    55    53    1
    57    10     9    1
    58    53    50    1
    59   113   110    1
    60     9     8    1
    61    37    43   am
    62    37    38    2
    63    40    42    1
    64    43    44    1
    65    78    77    1
    66   110   111    1
    67   123   122    2
    68    48    47    1
    69   126   124    1
    70   120   111   am
    71   120   121    1
    72    49    50    1
    73    49    45   am
    74   124   121    1
    75   124   125    1
    76    74    75    1
    77    74    77    1
    78    50    51    1
    79    75    76    2
    80    51    52    2
    81   111   112    2
    82    77    79    1
    83   121   122    1
    84    47    44    1
    85    44    45    1
    86    45    46    2
    87   101    99   am
    88     4     3    2
    89   100    99    2
    90    99    98    1
    91     3     2    1
    92    98    95    1
    93     6     5    1
    94    86    84    1
    95     2     5    1
    96     2     1    1
    97     5     7    1
    98    95    94    1
    99    95    96    1
   100   108   107    1
   101   108   102    1
   102    94    89   am
   103    85    84    1
   104    84    81    1
   105   107   106    1
   106    81    80    1
   107    81    82    1
   108   102    96   am
   109   102   103    1
   110    89    88    1
   111    89    90    2
   112    96    97    2
   113    88    91    1
   114    88    87    1
   115   105   104    2
   116   106   103    1
   117    82    83    2
   118   103   104    1
   119    91    92    1
   120    87    93    1
   121    92    93    1
