@<TRIPOS>MOLECULE
tmp/1uefA00.pdb
 205 200 0 0 0
SMALL
GASTEIGER

@<TRIPOS>ATOM
      1  N          6.0280    2.3480   10.1910 N.3    53  TYR53      -0.1227
      2  CA         6.4250    0.9750    9.8150 C.3    53  TYR53       0.1736
      3  C          5.2770    0.0280    9.5300 C.2    53  TYR53       0.2596
      4  O          5.4080   -0.8410    8.6660 O.2    53  TYR53      -0.2718
      5  CB         7.3270    0.3440   10.8760 C.3    53  TYR53       0.0548
      6  CG         8.6570    1.0340   11.0510 C.ar   53  TYR53      -0.0200
      7  CD1        9.2930    1.0640   12.2910 C.ar   53  TYR53      -0.0009
      8  CD2        9.2960    1.6420    9.9790 C.ar   53  TYR53      -0.0009
      9  CE1       10.5270    1.6820   12.4520 C.ar   53  TYR53       0.0417
     10  CE2       10.5350    2.2530   10.1410 C.ar   53  TYR53       0.0417
     11  CZ        11.1430    2.2660   11.3730 C.ar   53  TYR53       0.1957
     12  OH        12.3860    2.8360   11.5160 O.3    53  TYR53      -0.2866
     13  N          4.1680    0.1640   10.2530 N.am   54  THR54      -0.1939
     14  CA         3.0180   -0.6990   10.0100 C.3    54  THR54       0.2028
     15  C          2.3800   -0.3570    8.6690 C.2    54  THR54       0.2642
     16  O          1.3940   -0.9640    8.2810 O.2    54  THR54      -0.2714
     17  CB         1.9250   -0.5440   11.0750 C.3    54  THR54       0.1808
     18  OG1        1.6190    0.8480   11.2410 O.3    54  THR54      -0.2208
     19  CG2        2.3610   -1.1580   12.3780 C.3    54  THR54       0.0379
     20  N          2.9460    0.6230    7.9700 N.am   55  LEU55      -0.1963
     21  CA         2.4170    1.0350    6.6790 C.3    55  LEU55       0.1728
     22  C          3.4210    0.8480    5.5360 C.2    55  LEU55       0.2616
     23  O          3.1850    1.3140    4.4190 O.2    55  LEU55      -0.2715
     24  CB         1.9640    2.4890    6.7500 C.3    55  LEU55       0.0311
     25  CG         0.5100    2.7950    7.1040 C.3    55  LEU55       0.0022
     26  CD1        0.0360    1.9460    8.2560 C.3    55  LEU55       0.0001
     27  CD2        0.4010    4.2720    7.4330 C.3    55  LEU55       0.0001
     28  N          4.5400    0.1740    5.8430 N.am   56  LEU56      -0.1963
     29  CA         5.5830   -0.1340    4.8630 C.3    56  LEU56       0.1728
     30  C          5.3880   -1.5660    4.4200 C.2    56  LEU56       0.2616
     31  O          5.4770   -2.4920    5.2230 O.2    56  LEU56      -0.2715
     32  CB         6.9770   -0.0290    5.4740 C.3    56  LEU56       0.0311
     33  CG         7.8630    1.1930    5.2360 C.3    56  LEU56       0.0022
     34  CD1        7.0100    2.3810    4.9010 C.3    56  LEU56       0.0001
     35  CD2        8.7260    1.4470    6.4760 C.3    56  LEU56       0.0001
     36  N          5.1300   -1.7530    3.1390 N.am   57  ARG57      -0.1963
     37  CA         4.9460   -3.0780    2.6030 C.3    57  ARG57       0.1729
     38  C          6.2120   -3.9060    2.6290 C.2    57  ARG57       0.2616
     39  O          6.2040   -5.0260    3.0790 O.2    57  ARG57      -0.2715
     40  CB         4.4550   -2.9960    1.1570 C.3    57  ARG57       0.0348
     41  CG         3.0290   -2.5490    1.0150 C.3    57  ARG57       0.0492
     42  CD         2.6810   -2.3360   -0.4690 C.3    57  ARG57       0.2205
     43  NE         1.3110   -1.8710   -0.6150 N.pl3  57  ARG57      -0.0865
     44  CZ         0.9270   -0.9270   -1.4550 C.cat  57  ARG57       0.5346
     45  NH1        1.7980   -0.3440   -2.2560 N.pl3  57  ARG57       0.1354
     46  NH2       -0.3290   -0.5180   -1.4390 N.pl3  57  ARG57       0.1354
     47  N          7.3060   -3.3440    2.1430 N.am   58  ARG58      -0.1963
     48  CA         8.5580   -4.0820    2.0260 C.3    58  ARG58       0.1729
     49  C          9.6660   -3.0870    1.7500 C.2    58  ARG58       0.2616
     50  O          9.3960   -1.9450    1.3770 O.2    58  ARG58      -0.2715
     51  CB         8.4790   -5.0670    0.8500 C.3    58  ARG58       0.0348
     52  CG         8.1250   -4.3910   -0.4760 C.3    58  ARG58       0.0492
     53  CD         8.1530   -5.3960   -1.6600 C.3    58  ARG58       0.2205
     54  NE         7.0800   -6.4010   -1.6510 N.pl3  58  ARG58      -0.0865
     55  CZ         5.7980   -6.1660   -1.9730 C.cat  58  ARG58       0.5346
     56  NH1        5.4160   -4.9540   -2.3380 N.pl3  58  ARG58       0.1354
     57  NH2        4.8890   -7.1450   -1.9180 N.pl3  58  ARG58       0.1354
     58  N         10.9080   -3.5370    1.9170 N.am   59  TYR59      -0.1960
     59  CA        12.0520   -2.6740    1.7000 C.3    59  TYR59       0.1771
     60  C         13.2780   -3.5030    1.3590 C.2    59  TYR59       0.2620
     61  O         13.3710   -4.6480    1.7480 O.2    59  TYR59      -0.2715
     62  CB        12.2880   -1.8220    2.9530 C.3    59  TYR59       0.0574
     63  CG        12.3260   -2.6050    4.2610 C.ar   59  TYR59      -0.0198
     64  CD1       13.5320   -2.8250    4.9290 C.ar   59  TYR59      -0.0009
     65  CD2       11.1560   -3.1050    4.8360 C.ar   59  TYR59      -0.0009
     66  CE1       13.5690   -3.5170    6.1430 C.ar   59  TYR59       0.0417
     67  CE2       11.1840   -3.8020    6.0350 C.ar   59  TYR59       0.0417
     68  CZ        12.3920   -4.0040    6.6870 C.ar   59  TYR59       0.1957
     69  OH        12.4290   -4.6910    7.8760 O.3    59  TYR59      -0.2866
     70  N         14.2020   -2.9260    0.6020 N.am   60  GLY60      -0.1940
     71  CA        15.4080   -3.6390    0.2220 C.3    60  GLY60       0.2014
     72  C         16.5690   -2.6840    0.0420 C.2    60  GLY60       0.2639
     73  O         16.3850   -1.4720    0.1960 O.2    60  GLY60      -0.2714
     74  N         17.7600   -3.2060   -0.2600 N.am   61  ARG61      -0.1963
     75  CA        18.9420   -2.3540   -0.4710 C.3    61  ARG61       0.1729
     76  C         20.0930   -3.0670   -1.1660 C.2    61  ARG61       0.2616
     77  O         20.0580   -4.2730   -1.3750 O.2    61  ARG61      -0.2715
     78  CB        19.4720   -1.8080    0.8530 C.3    61  ARG61       0.0348
     79  CG        20.2810   -2.8270    1.7100 C.3    61  ARG61       0.0492
     80  CD        19.6280   -4.1790    1.7490 C.3    61  ARG61       0.2205
     81  NE        20.3150   -5.0950    2.6480 N.pl3  61  ARG61      -0.0865
     82  CZ        19.9360   -6.3540    2.8580 C.cat  61  ARG61       0.5346
     83  NH1       18.8780   -6.8470    2.2270 N.pl3  61  ARG61       0.1354
     84  NH2       20.6080   -7.1240    3.7030 N.pl3  61  ARG61       0.1354
     85  N         21.1020   -2.2870   -1.5320 N.am   62  ASP62      -0.1971
     86  CA        22.2990   -2.7900   -2.1420 C.3    62  ASP62       0.1709
     87  C         23.3310   -1.7070   -1.9550 C.2    62  ASP62       0.2293
     88  O         23.0630   -0.7170   -1.2690 O.2    62  ASP62      -0.2864
     89  CB        22.0900   -3.1490   -3.6200 C.3    62  ASP62       0.1436
     90  CG        21.6430   -1.9760   -4.4670 C.2    62  ASP62       0.3671
     91  OD1       22.1600   -0.8590   -4.2740 O.co2  62  ASP62      -0.2456
     92  OD2       20.7890   -2.1820   -5.3530 O.co2  62  ASP62      -0.2456
     93  N         21.7710    1.7440   -3.3170 N.3    65  MET65      -0.1245
     94  CA        20.6040    2.3980   -2.7450 C.3    65  MET65       0.1570
     95  C         19.8580    1.6170   -1.6580 C.2    65  MET65       0.2261
     96  O         20.2250    0.4970   -1.2680 O.2    65  MET65      -0.2867
     97  CB        19.6290    2.7390   -3.8830 C.3    65  MET65       0.0387
     98  CG        19.3460    1.5570   -4.8300 C.3    65  MET65       0.0595
     99  SD        18.1150    0.3480   -4.1940 S.3    65  MET65      -0.1393
    100  CE        17.7570   -0.6240   -5.6720 C.3    65  MET65       0.0692
    101  N         15.5870    1.1420   -0.6990 N.3    67  SER67      -0.1202
    102  CA        14.2710    1.4330   -1.2500 C.3    67  SER67       0.2020
    103  C         13.2350    0.8820   -0.3540 C.2    67  SER67       0.2619
    104  O         13.5340    0.0740    0.5010 O.2    67  SER67      -0.2717
    105  CB        14.0710    0.7490   -2.5930 C.3    67  SER67       0.2103
    106  OG        14.9090    1.3030   -3.5510 O.3    67  SER67      -0.2182
    107  N         12.0090    1.3040   -0.5850 N.am   68  PHE68      -0.1961
    108  CA        10.8940    0.8150    0.1640 C.3    68  PHE68       0.1771
    109  C          9.6010    1.1070   -0.5810 C.2    68  PHE68       0.2619
    110  O          9.5370    1.9440   -1.4780 O.2    68  PHE68      -0.2715
    111  CB        10.9090    1.3940    1.5840 C.3    68  PHE68       0.0574
    112  CG        10.6990    2.8850    1.6760 C.ar   68  PHE68      -0.0200
    113  CD1        9.4290    3.4110    1.9050 C.ar   68  PHE68      -0.0042
    114  CD2       11.7700    3.7500    1.6580 C.ar   68  PHE68      -0.0042
    115  CE1        9.2290    4.7680    2.1290 C.ar   68  PHE68      -0.0003
    116  CE2       11.5720    5.1320    1.8860 C.ar   68  PHE68      -0.0003
    117  CZ        10.2880    5.6310    2.1230 C.ar   68  PHE68      -0.0000
    118  N          8.5670    0.3560   -0.2500 N.am   69  GLU69      -0.1977
    119  CA         7.2780    0.5310   -0.8960 C.3    69  GLU69       0.1602
    120  C          6.3040    0.8900    0.2160 C.2    69  GLU69       0.2287
    121  O          6.1260    0.1330    1.1550 O.2    69  GLU69      -0.2864
    122  CB         6.8520   -0.7700   -1.6030 C.3    69  GLU69       0.0415
    123  CG         5.6520   -0.6150   -2.5030 C.3    69  GLU69       0.1163
    124  CD         5.1610   -1.9460   -3.0820 C.2    69  GLU69       0.3649
    125  OE1        5.9900   -2.8620   -3.2410 O.co2  69  GLU69      -0.2457
    126  OE2        3.9530   -2.0700   -3.3970 O.co2  69  GLU69      -0.2457
    127  N          2.6180    1.7980    1.8570 N.3    71  GLY71      -0.1210
    128  CA         1.2690    1.3050    1.7390 C.3    71  GLY71       0.1956
    129  C          0.4300    2.5100    1.3620 C.2    71  GLY71       0.2612
    130  O          0.9230    3.6460    1.3850 O.2    71  GLY71      -0.2717
    131  N         -0.8380    2.2930    1.0400 N.am   72  ARG72      -0.1965
    132  CA        -1.6530    3.4080    0.6140 C.3    72  ARG72       0.1729
    133  C         -2.1840    4.3220    1.7180 C.2    72  ARG72       0.2616
    134  O         -2.7800    5.3660    1.4280 O.2    72  ARG72      -0.2715
    135  CB        -2.7880    2.9040   -0.2810 C.3    72  ARG72       0.0348
    136  CG        -3.9890    2.4180    0.4500 C.3    72  ARG72       0.0492
    137  CD        -4.7660    1.4240   -0.4060 C.3    72  ARG72       0.2205
    138  NE        -4.5410    0.0870    0.1100 N.pl3  72  ARG72      -0.0865
    139  CZ        -5.3420   -0.9320   -0.1130 C.cat  72  ARG72       0.5346
    140  NH1       -6.4300   -0.7560   -0.8600 N.pl3  72  ARG72       0.1354
    141  NH2       -5.0600   -2.1110    0.4200 N.pl3  72  ARG72       0.1354
    142  N         -1.9260    3.9630    2.9710 N.am   73  ARG73      -0.1977
    143  CA        -2.3700    4.7810    4.1000 C.3    73  ARG73       0.1597
    144  C         -1.3040    5.8540    4.4540 C.2    73  ARG73       0.2287
    145  O         -1.5100    6.7200    5.2960 O.2    73  ARG73      -0.2864
    146  CB        -2.6440    3.8760    5.3080 C.3    73  ARG73       0.0334
    147  CG        -3.6770    4.4090    6.2660 C.3    73  ARG73       0.0492
    148  CD        -3.6680    3.6110    7.5880 C.3    73  ARG73       0.2205
    149  NE        -4.5980    4.1630    8.5760 N.pl3  73  ARG73      -0.0865
    150  CZ        -4.6000    5.4290    8.9980 C.cat  73  ARG73       0.5346
    151  NH1       -3.7150    6.3190    8.5340 N.pl3  73  ARG73       0.1354
    152  NH2       -5.5070    5.8130    9.8810 N.pl3  73  ARG73       0.1354
    153  N          6.8220    3.1370   -4.5880 N.3    80  THR80      -0.1218
    154  CA         8.2070    2.9750   -4.2250 C.3    80  THR80       0.1862
    155  C          9.0120    4.2830   -4.1310 C.2    80  THR80       0.2287
    156  O          8.7920    5.2180   -4.8820 O.2    80  THR80      -0.2866
    157  CB         8.8680    2.0110   -5.1950 C.3    80  THR80       0.1770
    158  OG1        8.2780    0.7260   -5.0150 O.3    80  THR80      -0.2211
    159  CG2       10.3670    1.9340   -4.9680 C.3    80  THR80       0.0375
    160  N         19.1530   -0.5390    6.1180 N.3    92  PHE92      -0.1241
    161  CA        18.3640   -1.7730    6.1620 C.3    92  PHE92       0.1605
    162  C         18.4730   -2.4800    7.5190 C.2    92  PHE92       0.2264
    163  O         17.4920   -3.0300    7.9970 O.2    92  PHE92      -0.2867
    164  CB        18.8010   -2.7530    5.0400 C.3    92  PHE92       0.0534
    165  CG        17.9230   -3.9680    4.9220 C.ar   92  PHE92      -0.0203
    166  CD1       16.8910   -4.0070    3.9890 C.ar   92  PHE92      -0.0042
    167  CD2       18.1060   -5.0540    5.7690 C.ar   92  PHE92      -0.0042
    168  CE1       16.0430   -5.1090    3.8960 C.ar   92  PHE92      -0.0003
    169  CE2       17.2790   -6.1530    5.6970 C.ar   92  PHE92      -0.0003
    170  CZ        16.2310   -6.1820    4.7470 C.ar   92  PHE92      -0.0000
    171  N         15.2780   -2.8780    9.8900 N.3    96  GLU96      -0.1245
    172  CA        14.9190   -4.2370   10.3160 C.3    96  GLU96       0.1567
    173  C         14.9840   -4.4000   11.8290 C.2    96  GLU96       0.2260
    174  O         14.1010   -5.0270   12.4260 O.2    96  GLU96      -0.2867
    175  CB        15.8440   -5.2560    9.6610 C.3    96  GLU96       0.0388
    176  CG        15.5150   -6.6830   10.0150 C.3    96  GLU96       0.1160
    177  CD        16.2510   -7.6720    9.1400 C.2    96  GLU96       0.3649
    178  OE1       17.4680   -7.4480    8.9570 O.co2  96  GLU96      -0.2457
    179  OE2       15.6350   -8.6580    8.6560 O.co2  96  GLU96      -0.2457
    180  N         12.0080   -2.5940   13.5100 N.3    99  ILE99      -0.1245
    181  CA        10.7040   -3.2050   13.3500 C.3    99  ILE99       0.1561
    182  C         10.5820   -4.4630   14.1730 C.2    99  ILE99       0.2260
    183  O          9.4930   -4.7870   14.6380 O.2    99  ILE99      -0.2867
    184  CB        10.4140   -3.5210   11.8880 C.3    99  ILE99       0.0252
    185  CG1       10.6120   -2.2580   11.0400 C.3    99  ILE99       0.0019
    186  CG2        9.0040   -4.0080   11.7330 C.3    99  ILE99       0.0019
    187  CD1       10.4020   -2.5240    9.4870 C.3    99  ILE99       0.0001
    188  N          9.6840   -3.2220   17.4580 N.3   102  GLN102     -0.1231
    189  CA         8.3170   -2.7460   17.5120 C.3   102  GLN102      0.1698
    190  C          7.3630   -3.9430   17.5320 C.2   102  GLN102      0.2592
    191  O          6.3390   -3.9300   18.2160 O.2   102  GLN102     -0.2718
    192  CB         8.0020   -1.8380   16.3260 C.3   102  GLN102      0.0381
    193  CG         6.6950   -1.1230   16.5280 C.3   102  GLN102      0.0905
    194  CD         6.2430   -0.2710   15.3530 C.2   102  GLN102      0.2608
    195  OE1        7.0690    0.2670   14.5840 O.2   102  GLN102     -0.2717
    196  NE2        4.9240   -0.1280   15.2130 N.am  102  GLN102     -0.0878
    197  N          7.7280   -4.9850   16.7880 N.am  103  LYS103     -0.1980
    198  CA         6.8950   -6.1790   16.7030 C.3   103  LYS103      0.1596
    199  C          6.9540   -6.9700   18.0210 C.2   103  LYS103      0.2287
    200  O          5.9780   -7.5900   18.4330 O.2   103  LYS103     -0.2864
    201  CB         7.3440   -7.0630   15.5370 C.3   103  LYS103      0.0298
    202  CG         8.6850   -7.7560   15.8050 C.3   103  LYS103      0.0038
    203  CD         8.6710   -9.2040   15.3110 C.3   103  LYS103      0.0206
    204  CE         9.9410   -9.9390   15.6630 C.3   103  LYS103      0.1093
    205  NZ         9.9580  -10.3610   17.0810 N.3   103  LYS103     -0.1314
@<TRIPOS>BOND
     1   100    99    1
     2    92    90   ar
     3   157   158    1
     4   157   159    1
     5   157   154    1
     6   156   155    2
     7    98    99    1
     8    98    97    1
     9   153   154    1
    10    90    91   ar
    11    90    89    1
    12   154   155    1
    13    97    94    1
    14    89    86    1
    15   106   105    1
    16   126   124   ar
    17    93    94    1
    18   125   124   ar
    19   124   123    1
    20    94    95    1
    21   105   102    1
    22   123   122    1
    23    56    55    1
    24    45    44    1
    25    86    87    1
    26    86    85    1
    27    55    57    1
    28    55    54    2
    29    87    88    2
    30    53    54    1
    31    53    52    1
    32    95    96    2
    33   122   119    1
    34    85    76   am
    35   110   109    2
    36    44    46    1
    37    44    43    2
    38    77    76    2
    39   102   101    1
    40   102   103    1
    41    76    75    1
    42   119   118    1
    43   119   120    1
    44   140   139    1
    45    43    42    1
    46   107   103   am
    47   107   108    1
    48   109   118   am
    49   109   108    1
    50    52    51    1
    51    75    74    1
    52    75    78    1
    53    42    41    1
    54   137   138    1
    55   137   136    1
    56   103   104    2
    57   135   136    1
    58   135   132    1
    59    74    72   am
    60   139   138    2
    61   139   141    1
    62    72    73    2
    63    72    71    1
    64   108   111    1
    65   120   121    2
    66    71    70    1
    67    70    60   am
    68   132   131    1
    69   132   133    1
    70    51    48    1
    71    78    79    1
    72    41    40    1
    73   131   129   am
    74    40    37    1
    75    60    59    1
    76    60    61    2
    77   129   130    2
    78   129   128    1
    79    50    49    2
    80   134   133    2
    81   111   112    1
    82   114   112   ar
    83   114   116   ar
    84   112   113   ar
    85    59    58    1
    86    59    62    1
    87    79    80    1
    88   133   142   am
    89   128   127    1
    90    80    81    1
    91    49    58   am
    92    49    48    1
    93   116   117   ar
    94   113   115   ar
    95    48    47    1
    96   117   115   ar
    97    47    38   am
    98    83    82    1
    99    37    38    1
   100    37    36    1
   101    38    39    2
   102    81    82    2
   103    82    84    1
   104    62    63    1
   105   142   143    1
   106    36    30   am
   107   168   166   ar
   108   168   170   ar
   109   166   165   ar
   110   143   144    1
   111   143   146    1
   112    63    65   ar
   113    63    64   ar
   114    23    22    2
   115    30    29    1
   116    30    31    2
   117   144   145    2
   118   170   169   ar
   119    65    67   ar
   120    29    32    1
   121    29    28    1
   122    34    33    1
   123   165   164    1
   124   165   167   ar
   125    64    66   ar
   126   164   161    1
   127    33    32    1
   128    33    35    1
   129   146   147    1
   130    22    28   am
   131    22    21    1
   132   169   167   ar
   133    67    68   ar
   134   160   161    1
   135    66    68   ar
   136   161   162    1
   137   147   148    1
   138    21    24    1
   139    21    20    1
   140    68    69    1
   141    24    25    1
   142    25    27    1
   143    25    26    1
   144   162   163    2
   145   148   149    1
   146    20    15   am
   147    16    15    2
   148   151   150    1
   149   149   150    2
   150   179   177   ar
   151     4     3    2
   152    15    14    1
   153   178   177   ar
   154   150   152    1
   155   177   176    1
   156   187   185    1
   157     3     2    1
   158     3    13   am
   159   175   176    1
   160   175   172    1
   161     2     1    1
   162     2     5    1
   163   171   172    1
   164     8    10   ar
   165     8     6   ar
   166    14    13    1
   167    14    17    1
   168    10    11   ar
   169   172   173    1
   170     5     6    1
   171   185   184    1
   172     6     7   ar
   173    17    18    1
   174    17    19    1
   175    11    12    1
   176    11     9   ar
   177   186   184    1
   178   173   174    2
   179   184   181    1
   180     7     9   ar
   181   181   180    1
   182   181   182    1
   183   182   183    2
   184   195   194    2
   185   196   194   am
   186   203   204    1
   187   203   202    1
   188   194   193    1
   189   201   202    1
   190   201   198    1
   191   204   205    1
   192   192   193    1
   193   192   189    1
   194   198   197    1
   195   198   199    1
   196   197   190   am
   197   188   189    1
   198   189   190    1
   199   190   191    2
   200   199   200    2
