@<TRIPOS>MOLECULE
tmp/1uefB00.pdb
 196 191 0 0 0
SMALL
GASTEIGER

@<TRIPOS>ATOM
      1  N         11.8200   17.0780   34.6170 N.3    52  TYR52      -0.1227
      2  CA        12.7740   16.5890   35.5930 C.3    52  TYR52       0.1736
      3  C         12.6170   17.2580   36.9300 C.2    52  TYR52       0.2596
      4  O         12.8870   16.6420   37.9560 O.2    52  TYR52      -0.2718
      5  CB        14.1650   16.8030   35.0460 C.3    52  TYR52       0.0548
      6  CG        14.3640   15.9780   33.8200 C.ar   52  TYR52      -0.0200
      7  CD1       15.2760   16.3370   32.8520 C.ar   52  TYR52      -0.0009
      8  CD2       13.6640   14.7980   33.6700 C.ar   52  TYR52      -0.0009
      9  CE1       15.4890   15.5340   31.7660 C.ar   52  TYR52       0.0417
     10  CE2       13.8540   13.9960   32.6120 C.ar   52  TYR52       0.0417
     11  CZ        14.7660   14.3480   31.6580 C.ar   52  TYR52       0.1957
     12  OH        14.9590   13.4880   30.6030 O.3    52  TYR52      -0.2866
     13  N         12.1480   18.5020   36.9120 N.am   53  THR53      -0.1939
     14  CA        11.9510   19.2930   38.1260 C.3    53  THR53       0.2028
     15  C         10.8090   18.8130   39.0180 C.2    53  THR53       0.2642
     16  O         10.6760   19.2850   40.1620 O.2    53  THR53      -0.2714
     17  CB        11.6900   20.7920   37.7960 C.3    53  THR53       0.1808
     18  OG1       10.5530   20.8910   36.9410 O.3    53  THR53      -0.2208
     19  CG2       12.8910   21.4240   37.0950 C.3    53  THR53       0.0379
     20  N          9.9910   17.8910   38.5070 N.am   54  LEU54      -0.1963
     21  CA         8.8570   17.3640   39.2750 C.3    54  LEU54       0.1728
     22  C          8.9470   15.8830   39.6090 C.2    54  LEU54       0.2616
     23  O          7.9940   15.2780   40.1070 O.2    54  LEU54      -0.2715
     24  CB         7.5250   17.6600   38.5710 C.3    54  LEU54       0.0311
     25  CG         7.2910   19.1790   38.3790 C.3    54  LEU54       0.0022
     26  CD1        5.8900   19.4240   37.7660 C.3    54  LEU54       0.0001
     27  CD2        7.4540   19.9190   39.7460 C.3    54  LEU54       0.0001
     28  N         10.0850   15.2830   39.3070 N.am   55  LEU55      -0.1963
     29  CA        10.2650   13.9050   39.6860 C.3    55  LEU55       0.1728
     30  C         11.0230   13.9930   41.0210 C.2    55  LEU55       0.2616
     31  O         11.9800   14.7720   41.1540 O.2    55  LEU55      -0.2715
     32  CB        11.0810   13.1380   38.6490 C.3    55  LEU55       0.0311
     33  CG        10.3500   12.9510   37.3200 C.3    55  LEU55       0.0022
     34  CD1       11.2740   12.2940   36.2820 C.3    55  LEU55       0.0001
     35  CD2        9.0990   12.1260   37.5660 C.3    55  LEU55       0.0001
     36  N         10.5500   13.2200   42.0020 N.am   56  ARG56      -0.1963
     37  CA        11.1600   13.1460   43.3340 C.3    56  ARG56       0.1729
     38  C         12.4080   12.2830   43.2660 C.2    56  ARG56       0.2616
     39  O         13.4710   12.6680   43.7240 O.2    56  ARG56      -0.2715
     40  CB        10.1850   12.5330   44.3450 C.3    56  ARG56       0.0348
     41  CG         8.9810   13.3910   44.6400 C.3    56  ARG56       0.0492
     42  CD         7.8850   12.5890   45.3140 C.3    56  ARG56       0.2205
     43  NE         6.7150   13.4270   45.5400 N.pl3  56  ARG56      -0.0865
     44  CZ         5.5270   12.9910   45.9370 C.cat  56  ARG56       0.5346
     45  NH1        5.3140   11.7020   46.1730 N.pl3  56  ARG56       0.1354
     46  NH2        4.5360   13.8570   46.0670 N.pl3  56  ARG56       0.1354
     47  N         12.2790   11.1090   42.6840 N.am   57  ARG57      -0.1963
     48  CA        13.4250   10.2400   42.5910 C.3    57  ARG57       0.1729
     49  C         13.2020    9.2520   41.4350 C.2    57  ARG57       0.2616
     50  O         12.0830    9.1420   40.9230 O.2    57  ARG57      -0.2715
     51  CB        13.6030    9.5160   43.9370 C.3    57  ARG57       0.0348
     52  CG        12.2950    9.0180   44.5440 C.3    57  ARG57       0.0492
     53  CD        12.4870    8.1580   45.8250 C.3    57  ARG57       0.2205
     54  NE        12.8630    8.8840   47.0430 N.pl3  57  ARG57      -0.0865
     55  CZ        12.0900    9.7760   47.6680 C.cat  57  ARG57       0.5346
     56  NH1       10.8870   10.0860   47.2110 N.pl3  57  ARG57       0.1354
     57  NH2       12.5080   10.3570   48.7740 N.pl3  57  ARG57       0.1354
     58  N         14.2680    8.5860   40.9950 N.am   58  TYR58      -0.1960
     59  CA        14.1430    7.5790   39.9540 C.3    58  TYR58       0.1771
     60  C         15.2030    6.4980   40.1770 C.2    58  TYR58       0.2620
     61  O         16.2330    6.7490   40.8030 O.2    58  TYR58      -0.2715
     62  CB        14.2640    8.2100   38.5660 C.3    58  TYR58       0.0574
     63  CG        15.4960    9.0470   38.3530 C.ar   58  TYR58      -0.0198
     64  CD1       16.6160    8.5120   37.7350 C.ar   58  TYR58      -0.0009
     65  CD2       15.5270   10.3900   38.7550 C.ar   58  TYR58      -0.0009
     66  CE1       17.7330    9.2840   37.5110 C.ar   58  TYR58       0.0417
     67  CE2       16.6500   11.1830   38.5430 C.ar   58  TYR58       0.0417
     68  CZ        17.7540   10.6190   37.9200 C.ar   58  TYR58       0.1957
     69  OH        18.8920   11.3690   37.7390 O.3    58  TYR58      -0.2866
     70  N         14.9210    5.2850   39.7110 N.am   59  GLY59      -0.1940
     71  CA        15.8640    4.2000   39.8900 C.3    59  GLY59       0.2014
     72  C         15.7500    3.1360   38.8230 C.2    59  GLY59       0.2639
     73  O         14.8440    3.1820   37.9920 O.2    59  GLY59      -0.2714
     74  N         16.6510    2.1630   38.8460 N.am   60  ARG60      -0.1963
     75  CA        16.6290    1.1090   37.8340 C.3    60  ARG60       0.1729
     76  C         17.4760   -0.1290   38.1340 C.2    60  ARG60       0.2616
     77  O         18.4850   -0.0510   38.8270 O.2    60  ARG60      -0.2715
     78  CB        17.1480    1.6720   36.5060 C.3    60  ARG60       0.0348
     79  CG        18.6820    1.7810   36.4370 C.3    60  ARG60       0.0492
     80  CD        19.2800    2.5650   37.6160 C.3    60  ARG60       0.2205
     81  NE        20.7400    2.6440   37.5180 N.pl3  60  ARG60      -0.0865
     82  CZ        21.5500    3.1590   38.4360 C.cat  60  ARG60       0.5346
     83  NH1       21.0750    3.6580   39.5520 N.pl3  60  ARG60       0.1354
     84  NH2       22.8490    3.1600   38.2340 N.pl3  60  ARG60       0.1354
     85  N         17.0520   -1.2650   37.5930 N.am   61  ASP61      -0.1971
     86  CA        17.8250   -2.4930   37.6760 C.3    61  ASP61       0.1709
     87  C         17.7220   -3.2240   36.3290 C.2    61  ASP61       0.2293
     88  O         17.1640   -2.7230   35.3650 O.2    61  ASP61      -0.2864
     89  CB        17.4050   -3.4080   38.8510 C.3    61  ASP61       0.1436
     90  CG        15.9140   -3.6630   38.9320 C.2    61  ASP61       0.3671
     91  OD1       15.2080   -3.6180   37.9170 O.co2  61  ASP61      -0.2456
     92  OD2       15.4380   -3.9410   40.0470 O.co2  61  ASP61      -0.2456
     93  N         13.8580   -3.3680   35.3000 N.3    64  MET64      -0.1245
     94  CA        12.9720   -2.2240   35.1630 C.3    64  MET64       0.1570
     95  C         13.5620   -0.8180   35.3530 C.2    64  MET64       0.2261
     96  O         14.7480   -0.6150   35.6840 O.2    64  MET64      -0.2867
     97  CB        11.7710   -2.4020   36.1030 C.3    64  MET64       0.0387
     98  CG        12.1170   -2.8560   37.5210 C.3    64  MET64       0.0595
     99  SD        12.1310   -1.5180   38.7620 S.3    64  MET64      -0.1393
    100  CE        13.6520   -0.6640   38.3840 C.3    64  MET64       0.0692
    101  N         11.9620    2.8380   37.0340 N.3    66  SER66      -0.1202
    102  CA        10.8160    3.4430   37.6620 C.3    66  SER66       0.2020
    103  C         11.1330    4.8460   38.1650 C.2    66  SER66       0.2619
    104  O         12.2860    5.2460   38.2820 O.2    66  SER66      -0.2717
    105  CB        10.2930    2.5660   38.8060 C.3    66  SER66       0.2103
    106  OG        11.2090    2.5220   39.8670 O.3    66  SER66      -0.2182
    107  N         10.0960    5.6050   38.4360 N.am   67  PHE67      -0.1961
    108  CA        10.3160    6.9210   38.9310 C.3    67  PHE67       0.1771
    109  C          9.1150    7.3200   39.7870 C.2    67  PHE67       0.2619
    110  O          8.0410    6.7100   39.7150 O.2    67  PHE67      -0.2715
    111  CB        10.6030    7.8870   37.7510 C.3    67  PHE67       0.0574
    112  CG         9.4820    7.9970   36.7420 C.ar   67  PHE67      -0.0200
    113  CD1        8.4200    8.8710   36.9600 C.ar   67  PHE67      -0.0042
    114  CD2        9.4970    7.2330   35.5740 C.ar   67  PHE67      -0.0042
    115  CE1        7.3960    8.9870   36.0380 C.ar   67  PHE67      -0.0003
    116  CE2        8.4810    7.3330   34.6320 C.ar   67  PHE67      -0.0003
    117  CZ         7.4200    8.2110   34.8550 C.ar   67  PHE67      -0.0000
    118  N          9.3150    8.2920   40.6580 N.am   68  GLU68      -0.1977
    119  CA         8.2320    8.7360   41.5150 C.3    68  GLU68       0.1602
    120  C          7.9240   10.1870   41.1460 C.2    68  GLU68       0.2287
    121  O          8.7090   11.1040   41.4140 O.2    68  GLU68      -0.2864
    122  CB         8.6270    8.6080   42.9910 C.3    68  GLU68       0.0415
    123  CG         7.5440    9.0780   43.9380 C.3    68  GLU68       0.1163
    124  CD         8.0080    9.1650   45.3940 C.2    68  GLU68       0.3649
    125  OE1        9.2260    9.1180   45.6660 O.co2  68  GLU68      -0.2457
    126  OE2        7.1440    9.2990   46.2710 O.co2  68  GLU68      -0.2457
    127  N          6.1650   13.7050   41.4560 N.3    70  GLY70      -0.1210
    128  CA         5.6380   14.4770   42.5770 C.3    70  GLY70       0.1956
    129  C          4.2440   15.0010   42.2400 C.2    70  GLY70       0.2612
    130  O          3.7520   14.7430   41.1460 O.2    70  GLY70      -0.2717
    131  N          3.6180   15.7520   43.1450 N.am   71  ARG71      -0.1965
    132  CA         2.2540   16.2770   42.9360 C.3    71  ARG71       0.1729
    133  C          1.9380   17.1720   41.7350 C.2    71  ARG71       0.2616
    134  O          0.8460   17.0940   41.1660 O.2    71  ARG71      -0.2715
    135  CB         1.7860   17.0240   44.1820 C.3    71  ARG71       0.0348
    136  CG         1.4880   16.1500   45.3990 C.3    71  ARG71       0.0492
    137  CD         1.3820   17.0150   46.6610 C.3    71  ARG71       0.2205
    138  NE         2.5580   17.8700   46.7570 N.pl3  71  ARG71      -0.0865
    139  CZ         2.9530   18.5220   47.8480 C.cat  71  ARG71       0.5346
    140  NH1        2.2430   18.4350   48.9850 N.pl3  71  ARG71       0.1354
    141  NH2        4.0960   19.2180   47.8100 N.pl3  71  ARG71       0.1354
    142  N          2.8630   18.0340   41.3430 N.am   72  ARG72      -0.1977
    143  CA         2.5660   18.9600   40.2500 C.3    72  ARG72       0.1597
    144  C          2.5960   18.3900   38.8130 C.2    72  ARG72       0.2287
    145  O          2.4030   19.1200   37.8280 O.2    72  ARG72      -0.2864
    146  CB         3.4680   20.1910   40.4170 C.3    72  ARG72       0.0334
    147  CG         3.2890   20.8090   41.8080 C.3    72  ARG72       0.0492
    148  CD         4.2970   21.8950   42.1250 C.3    72  ARG72       0.2205
    149  NE         5.6760   21.4130   42.1200 N.pl3  72  ARG72      -0.0865
    150  CZ         6.7440   22.2010   42.2220 C.cat  72  ARG72       0.5346
    151  NH1        6.5950   23.5150   42.3470 N.pl3  72  ARG72       0.1354
    152  NH2        7.9650   21.6780   42.1620 N.pl3  72  ARG72       0.1354
    153  N          4.5150    6.1010   42.0350 N.3    79  THR79      -0.1218
    154  CA         5.6090    5.4160   41.3770 C.3    79  THR79       0.1862
    155  C          5.1430    4.8870   40.0210 C.2    79  THR79       0.2287
    156  O          4.0710    4.2940   39.9130 O.2    79  THR79      -0.2866
    157  CB         6.1020    4.2450   42.2540 C.3    79  THR79       0.1770
    158  OG1        6.5890    4.7680   43.4990 O.3    79  THR79      -0.2211
    159  CG2        7.2130    3.4610   41.5560 C.3    79  THR79       0.0375
    160  N         18.3740    5.1960   32.7110 N.3    91  PHE91      -0.1241
    161  CA        18.8420    5.8700   33.9070 C.3    91  PHE91       0.1605
    162  C         19.9570    6.8310   33.5290 C.2    91  PHE91       0.2264
    163  O         19.9830    7.9990   33.9490 O.2    91  PHE91      -0.2867
    164  CB        19.3880    4.8680   34.9210 C.3    91  PHE91       0.0534
    165  CG        20.0270    5.5220   36.1140 C.ar   91  PHE91      -0.0203
    166  CD1       19.2540    5.8940   37.2250 C.ar   91  PHE91      -0.0042
    167  CD2       21.3850    5.8410   36.0960 C.ar   91  PHE91      -0.0042
    168  CE1       19.8250    6.5780   38.2920 C.ar   91  PHE91      -0.0003
    169  CE2       21.9660    6.5200   37.1470 C.ar   91  PHE91      -0.0003
    170  CZ        21.1870    6.8950   38.2530 C.ar   91  PHE91      -0.0000
    171  N         19.9710   10.8500   33.6280 N.3    95  GLU95      -0.1245
    172  CA        21.0930   11.3550   34.4120 C.3    95  GLU95       0.1567
    173  C         21.7420   12.5400   33.6700 C.2    95  GLU95       0.2260
    174  O         21.8440   13.6520   34.1820 O.2    95  GLU95      -0.2867
    175  CB        22.1120   10.2070   34.5940 C.3    95  GLU95       0.0388
    176  CG        23.2420   10.4390   35.6000 C.3    95  GLU95       0.1160
    177  CD        22.7660   10.4120   37.0620 C.2    95  GLU95       0.3649
    178  OE1       23.5990   10.1170   37.9580 O.co2  95  GLU95      -0.2457
    179  OE2       21.5680   10.6980   37.3150 O.co2  95  GLU95      -0.2457
    180  N         19.3770   15.6510   32.9150 N.3    98  ILE98      -0.1245
    181  CA        19.2290   16.5070   34.0930 C.3    98  ILE98       0.1561
    182  C         20.5500   17.2560   34.3250 C.2    98  ILE98       0.2260
    183  O         20.5690   18.4240   34.7210 O.2    98  ILE98      -0.2867
    184  CB        18.8530   15.6790   35.3450 C.3    98  ILE98       0.0252
    185  CG1       17.4550   15.0830   35.1500 C.3    98  ILE98       0.0019
    186  CG2       18.9190   16.5460   36.5670 C.3    98  ILE98       0.0019
    187  CD1       16.8120   14.4520   36.3810 C.3    98  ILE98       0.0001
    188  N         21.2430   20.5670   32.6180 N.3   101  GLN101     -0.1245
    189  CA        20.5430   21.7120   33.1620 C.3   101  GLN101      0.1566
    190  C         21.6140   22.5700   33.8590 C.2   101  GLN101      0.2260
    191  O         21.3490   23.2050   34.8730 O.2   101  GLN101     -0.2867
    192  CB        19.5070   21.2800   34.1830 C.3   101  GLN101      0.0367
    193  CG        18.5580   20.1900   33.7100 C.3   101  GLN101      0.0905
    194  CD        17.4660   20.6770   32.7900 C.2   101  GLN101      0.2608
    195  OE1       16.9040   21.7520   32.9760 O.2   101  GLN101     -0.2717
    196  NE2       17.1370   19.8700   31.8070 N.am  101  GLN101     -0.0878
@<TRIPOS>BOND
     1    12    11    1
     2    11     9   ar
     3    11    10   ar
     4     9     7   ar
     5   196   194   am
     6    10     8   ar
     7   188   189    1
     8   160   161    1
     9   194   195    2
    10   194   193    1
    11     7     6   ar
    12   180   181    1
    13   189   190    1
    14   189   192    1
    15   162   161    1
    16   162   163    2
    17   171   172    1
    18   173   174    2
    19   173   172    1
    20     8     6   ar
    21   193   192    1
    22     6     5    1
    23   190   191    2
    24   161   164    1
    25   181   182    1
    26   181   184    1
    27   182   183    2
    28   172   175    1
    29   175   176    1
    30     1     2    1
    31   116   117   ar
    32   116   114   ar
    33   117   115   ar
    34   164   165    1
    35     5     2    1
    36   185   184    1
    37   185   187    1
    38    94    93    1
    39    94    95    1
    40    94    97    1
    41   184   186    1
    42    95    96    2
    43    88    87    2
    44   114   112   ar
    45     2     3    1
    46   176   177    1
    47   115   113   ar
    48   167   165   ar
    49   167   169   ar
    50    97    98    1
    51   165   166   ar
    52    34    33    1
    53    87    86    1
    54    79    78    1
    55    79    80    1
    56    78    75    1
    57   112   113   ar
    58   112   111    1
    59    13     3   am
    60    13    14    1
    61     3     4    2
    62    18    17    1
    63   101   102    1
    64   177   179   ar
    65   177   178   ar
    66    19    17    1
    67   169   170   ar
    68   166   168   ar
    69    33    35    1
    70    33    32    1
    71    66    64   ar
    72    66    68   ar
    73    81    80    1
    74    81    82    2
    75    98    99    1
    76    85    86    1
    77    85    76   am
    78   102   103    1
    79   102   105    1
    80    86    89    1
    81    64    63   ar
    82    69    68    1
    83   111   108    1
    84    26    25    1
    85    17    14    1
    86   145   144    2
    87    75    76    1
    88    75    74    1
    89    91    90   ar
    90    68    67   ar
    91    73    72    2
    92    14    15    1
    93    76    77    2
    94   103   104    2
    95   103   107   am
    96    84    82    1
    97   170   168   ar
    98    63    62    1
    99    63    65   ar
   100    25    24    1
   101    25    27    1
   102   100    99    1
   103   107   108    1
   104    82    83    1
   105    20    15   am
   106    20    21    1
   107    67    65   ar
   108    62    59    1
   109    24    21    1
   110    32    29    1
   111   105   106    1
   112   144   143    1
   113    72    74   am
   114    72    71    1
   115    89    90    1
   116   108   109    1
   117    90    92   ar
   118    15    16    2
   119    21    22    1
   120    28    22   am
   121    28    29    1
   122    22    23    2
   123    29    30    1
   124    70    71    1
   125    70    60   am
   126   110   109    2
   127   109   118   am
   128   156   155    2
   129    59    60    1
   130    59    58    1
   131   155   154    1
   132    60    61    2
   133   143   146    1
   134   143   142    1
   135   146   147    1
   136   118   119    1
   137    50    49    2
   138    58    49   am
   139    30    31    2
   140    30    36   am
   141   120   121    2
   142   120   119    1
   143   130   129    2
   144   134   133    2
   145   142   133   am
   146   154   153    1
   147   154   157    1
   148    49    48    1
   149   127   128    1
   150   119   122    1
   151   159   157    1
   152   133   132    1
   153   147   148    1
   154    36    37    1
   155   149   148    1
   156   149   150    2
   157   152   150    1
   158   150   151    1
   159   129   128    1
   160   129   131   am
   161   157   158    1
   162    48    47    1
   163    48    51    1
   164    47    38   am
   165   132   131    1
   166   132   135    1
   167   122   123    1
   168    38    37    1
   169    38    39    2
   170    37    40    1
   171    51    52    1
   172   123   124    1
   173   135   136    1
   174    40    41    1
   175    52    53    1
   176    41    42    1
   177    42    43    1
   178   124   125   ar
   179   124   126   ar
   180   136   137    1
   181    43    44    2
   182    53    54    1
   183    44    46    1
   184    44    45    1
   185   137   138    1
   186   138   139    2
   187    54    55    2
   188    56    55    1
   189    55    57    1
   190   141   139    1
   191   139   140    1
