@<TRIPOS>MOLECULE
tmp/1uehB00.pdb
 133 122 0 0 0
SMALL
GASTEIGER

@<TRIPOS>ATOM
      1  N          3.8320   36.2530   30.9960 N.3    31  ALA31      -0.1245
      2  CA         4.0480   37.3700   30.0330 C.3    31  ALA31       0.1562
      3  C          3.4320   38.6410   30.5720 C.2    31  ALA31       0.2260
      4  O          4.0090   39.7070   30.4430 O.2    31  ALA31      -0.2867
      5  CB         3.4720   37.0490   28.6650 C.3    31  ALA31       0.0290
      6  N          5.8460   40.0910   32.8340 N.3    34  VAL34      -0.1231
      7  CA         6.9330   40.7620   32.1310 C.3    34  VAL34       0.1692
      8  C          6.5010   42.1750   31.7480 C.2    34  VAL34       0.2591
      9  O          7.2280   43.1370   31.9930 O.2    34  VAL34      -0.2718
     10  CB         7.3300   40.0090   30.8480 C.3    34  VAL34       0.0266
     11  CG1        8.2890   40.8380   29.9910 C.3    34  VAL34       0.0020
     12  CG2        8.0080   38.6790   31.2520 C.3    34  VAL34       0.0020
     13  N          5.3290   42.3110   31.1300 N.am   35  ARG35      -0.1980
     14  CA         4.8940   43.6560   30.7450 C.3    35  ARG35       0.1597
     15  C          4.8450   44.5860   31.9660 C.2    35  ARG35       0.2287
     16  O          5.3060   45.7150   31.9170 O.2    35  ARG35      -0.2864
     17  CB         3.5330   43.5880   30.0510 C.3    35  ARG35       0.0334
     18  CG         3.6160   42.7990   28.7320 C.3    35  ARG35       0.0492
     19  CD         2.2970   42.8640   27.9260 C.3    35  ARG35       0.2205
     20  NE         2.3110   41.8400   26.8880 N.pl3  35  ARG35      -0.0865
     21  CZ         1.7710   40.6350   27.0270 C.cat  35  ARG35       0.5346
     22  NH1        1.1350   40.3170   28.1680 N.pl3  35  ARG35       0.1354
     23  NH2        1.9360   39.7220   26.0620 N.pl3  35  ARG35       0.1354
     24  N          8.4390   45.5750   33.0660 N.3    38  VAL38      -0.1231
     25  CA         9.1010   46.4820   32.1230 C.3    38  VAL38       0.1692
     26  C          8.5320   47.9050   32.3210 C.2    38  VAL38       0.2592
     27  O          9.2860   48.8960   32.3580 O.2    38  VAL38      -0.2718
     28  CB         8.9210   45.9960   30.6630 C.3    38  VAL38       0.0266
     29  CG1        9.3650   47.0820   29.6650 C.3    38  VAL38       0.0020
     30  CG2        9.7080   44.6730   30.4520 C.3    38  VAL38       0.0020
     31  N          7.2130   47.9970   32.4620 N.am   39  SER39      -0.1952
     32  CA         6.5830   49.3210   32.6820 C.3    39  SER39       0.1924
     33  C          7.1420   49.9090   33.9720 C.2    39  SER39       0.2314
     34  O          7.5190   51.0780   34.0350 O.2    39  SER39      -0.2863
     35  CB         5.0590   49.1930   32.8190 C.3    39  SER39       0.2116
     36  OG         4.4890   48.8100   31.5920 O.3    39  SER39      -0.2180
     37  N         10.7130   51.1780   33.5610 N.3    42  ALA42      -0.1231
     38  CA        10.7360   52.4120   32.7610 C.3    42  ALA42       0.1694
     39  C         10.1530   53.5950   33.5490 C.2    42  ALA42       0.2592
     40  O         10.7000   54.7080   33.4940 O.2    42  ALA42      -0.2718
     41  CB         9.9560   52.2110   31.5060 C.3    42  ALA42       0.0304
     42  N          9.0630   53.3430   34.2730 N.am   43  ASN43      -0.1974
     43  CA         8.3780   54.3850   35.0820 C.3    43  ASN43       0.1688
     44  C          9.2100   54.8900   36.2650 C.2    43  ASN43       0.2292
     45  O          8.9100   55.9490   36.8440 O.2    43  ASN43      -0.2864
     46  CB         7.0600   53.8520   35.6640 C.3    43  ASN43       0.1181
     47  CG         5.9810   53.6290   34.6210 C.2    43  ASN43       0.2629
     48  OD1        5.0240   52.8730   34.8560 O.2    43  ASN43      -0.2716
     49  ND2        6.1010   54.2940   33.4900 N.am   43  ASN43      -0.0877
     50  N          4.9030   37.3470   18.4570 N.3    76  ALA76      -0.1231
     51  CA         4.9420   38.2550   19.6290 C.3    76  ALA76       0.1694
     52  C          5.7290   39.5280   19.3070 C.2    76  ALA76       0.2591
     53  O          5.3320   40.6250   19.6690 O.2    76  ALA76      -0.2718
     54  CB         5.5530   37.5460   20.8590 C.3    76  ALA76       0.0304
     55  N          6.8390   39.3860   18.6090 N.am   77  LEU77      -0.1980
     56  CA         7.6270   40.5400   18.2260 C.3    77  LEU77       0.1596
     57  C          6.7950   41.4150   17.2630 C.2    77  LEU77       0.2287
     58  O          6.7760   42.6380   17.3840 O.2    77  LEU77      -0.2864
     59  CB         8.9130   40.0850   17.5500 C.3    77  LEU77       0.0297
     60  CG         9.9620   39.4360   18.4700 C.3    77  LEU77       0.0022
     61  CD1       11.0980   38.7970   17.6420 C.3    77  LEU77       0.0001
     62  CD2       10.5290   40.5170   19.4050 C.3    77  LEU77       0.0001
     63  N          3.9060   43.2330   19.3570 N.3    80  GLU80      -0.1231
     64  CA         4.2070   44.1560   20.4480 C.3    80  GLU80       0.1699
     65  C          5.3470   45.1200   20.3370 C.2    80  GLU80       0.2592
     66  O          5.4150   46.0440   21.1240 O.2    80  GLU80      -0.2718
     67  CB         4.3890   43.3530   21.7540 C.3    80  GLU80       0.0402
     68  CG         3.2240   42.3940   22.0200 C.3    80  GLU80       0.1161
     69  CD         3.1260   41.9090   23.4630 C.2    80  GLU80       0.3649
     70  OE1        3.1350   40.6790   23.6500 O.co2  80  GLU80      -0.2457
     71  OE2        3.0020   42.7420   24.3940 O.co2  80  GLU80      -0.2457
     72  N          6.2460   44.9250   19.3950 N.am   81  VAL81      -0.1980
     73  CA         7.3820   45.8280   19.3470 C.3    81  VAL81       0.1595
     74  C          7.0280   47.2720   18.9540 C.2    81  VAL81       0.2287
     75  O          7.6920   48.2110   19.4100 O.2    81  VAL81      -0.2864
     76  CB         8.5010   45.2460   18.4460 C.3    81  VAL81       0.0276
     77  CG1        9.6180   46.2860   18.2340 C.3    81  VAL81       0.0022
     78  CG2        9.1150   44.0100   19.1630 C.3    81  VAL81       0.0022
     79  N          4.5800   49.1050   19.9690 N.3    83  SER83      -0.1202
     80  CA         4.2140   49.8210   21.1980 C.3    83  SER83       0.2020
     81  C          5.4860   50.1070   22.0390 C.2    83  SER83       0.2618
     82  O          5.6570   51.2000   22.5790 O.2    83  SER83      -0.2717
     83  CB         3.2240   49.0050   22.0260 C.3    83  SER83       0.2103
     84  OG         2.9540   49.6890   23.2490 O.3    83  SER83      -0.2182
     85  N          6.3630   49.1160   22.1610 N.am   84  LEU84      -0.1979
     86  CA         7.6220   49.3350   22.8660 C.3    84  LEU84       0.1596
     87  C          8.3640   50.5220   22.1950 C.2    84  LEU84       0.2287
     88  O          8.9240   51.3750   22.8730 O.2    84  LEU84      -0.2864
     89  CB         8.4920   48.0700   22.7960 C.3    84  LEU84       0.0297
     90  CG         8.0720   46.9340   23.7450 C.3    84  LEU84       0.0022
     91  CD1        9.0380   45.7550   23.5970 C.3    84  LEU84       0.0001
     92  CD2        8.0840   47.4330   25.2210 C.3    84  LEU84       0.0001
     93  N          6.9830   53.7550   23.1430 N.3    87  HIS87      -0.1241
     94  CA         7.3790   54.0310   24.5270 C.3    87  HIS87       0.1621
     95  C          8.8790   54.2840   24.7150 C.2    87  HIS87       0.2264
     96  O          9.3560   54.2830   25.8400 O.2    87  HIS87      -0.2867
     97  CB         6.9470   52.8970   25.4450 C.3    87  HIS87       0.0745
     98  CG         5.4850   52.9100   25.7390 C.ar   87  HIS87       0.0817
     99  ND1        4.9500   53.5530   26.8360 N.ar   87  HIS87      -0.2268
    100  CD2        4.4430   52.3740   25.0650 C.ar   87  HIS87       0.1154
    101  CE1        3.6370   53.3980   26.8320 C.ar   87  HIS87       0.1986
    102  NE2        3.3040   52.6850   25.7700 N.ar   87  HIS87      -0.2212
    103  N         11.4880   52.4780   24.1600 N.3    89  VAL89      -0.1245
    104  CA        12.2790   51.3520   24.6660 C.3    89  VAL89       0.1561
    105  C         13.2140   50.8160   23.5720 C.2    89  VAL89       0.2260
    106  O         12.8030   50.6870   22.4240 O.2    89  VAL89      -0.2867
    107  CB        11.3520   50.1890   25.0770 C.3    89  VAL89       0.0252
    108  CG1       12.1800   48.9580   25.5020 C.3    89  VAL89       0.0019
    109  CG2       10.4490   50.6510   26.2050 C.3    89  VAL89       0.0019
    110  N         15.0270   47.6640   22.3250 N.3    91  LEU91      -0.1245
    111  CA        14.9930   46.2060   22.5310 C.3    91  LEU91       0.1561
    112  C         16.2600   45.5620   21.9680 C.2    91  LEU91       0.2260
    113  O         16.6220   45.8250   20.8180 O.2    91  LEU91      -0.2867
    114  CB        13.7720   45.6060   21.8030 C.3    91  LEU91       0.0270
    115  CG        13.5950   44.0850   21.8840 C.3    91  LEU91       0.0019
    116  CD1       13.3390   43.6590   23.3650 C.3    91  LEU91       0.0001
    117  CD2       12.3680   43.6960   21.0490 C.3    91  LEU91       0.0001
    118  N         15.7460   47.3000   27.0550 N.3   123  LEU123     -0.1245
    119  CA        15.2500   46.0070   27.5100 C.3   123  LEU123      0.1561
    120  C         16.0820   44.9180   26.8010 C.2   123  LEU123      0.2260
    121  O         16.0330   44.7900   25.5830 O.2   123  LEU123     -0.2867
    122  CB        13.7610   45.8860   27.1670 C.3   123  LEU123      0.0270
    123  CG        13.1330   44.5090   27.4330 C.3   123  LEU123      0.0019
    124  CD1       13.2090   44.1300   28.9250 C.3   123  LEU123      0.0001
    125  CD2       11.6850   44.5560   26.9690 C.3   123  LEU123      0.0001
    126  N         16.7850   40.9250   26.2570 N.3   125  ILE125     -0.1245
    127  CA        16.1610   39.6140   26.4500 C.3   125  ILE125      0.1561
    128  C         17.3240   38.6190   26.1720 C.2   125  ILE125      0.2260
    129  O         17.8400   38.5900   25.0670 O.2   125  ILE125     -0.2867
    130  CB        15.0490   39.3350   25.4030 C.3   125  ILE125      0.0252
    131  CG1       13.9440   40.4160   25.4920 C.3   125  ILE125      0.0019
    132  CG2       14.4350   37.9470   25.6600 C.3   125  ILE125      0.0019
    133  CD1       13.3930   40.6160   26.9050 C.3   125  ILE125      0.0001
@<TRIPOS>BOND
     1    57    58    2
     2    57    56    1
     3    59    56    1
     4    59    60    1
     5    61    60    1
     6    56    55    1
     7    77    76    1
     8    76    78    1
     9    76    73    1
    10    50    51    1
    11    60    62    1
    12    55    52   am
    13    74    73    1
    14    74    75    2
    15    52    51    1
    16    52    53    2
    17    73    72    1
    18    63    64    1
    19    72    65   am
    20    51    54    1
    21    79    80    1
    22    65    64    1
    23    65    66    2
    24    64    67    1
    25   113   112    2
    26   117   115    1
    27    80    83    1
    28    80    81    1
    29    67    68    1
    30   114   115    1
    31   114   111    1
    32   115   116    1
    33   112   111    1
    34    68    69    1
    35    83    84    1
    36    81    85   am
    37    81    82    2
    38    85    86    1
    39    87    86    1
    40    87    88    2
    41   110   111    1
    42   106   105    2
    43    89    86    1
    44    89    90    1
    45    93    94    1
    46    69    70   ar
    47    69    71   ar
    48   105   104    1
    49    91    90    1
    50    90    92    1
    51   103   104    1
    52    94    95    1
    53    94    97    1
    54   104   107    1
    55    95    96    2
    56   100    98   ar
    57   100   102   ar
    58   129   128    2
    59   107   108    1
    60   107   109    1
    61   130   131    1
    62   130   132    1
    63   130   127    1
    64    97    98    1
    65   131   133    1
    66   121   120    2
    67    98    99   ar
    68   102   101   ar
    69    23    21    1
    70   128   127    1
    71   126   127    1
    72   120   119    1
    73   101    99   ar
    74    20    21    2
    75    20    19    1
    76   125   123    1
    77    21    22    1
    78   118   119    1
    79   122   123    1
    80   122   119    1
    81   123   124    1
    82    19    18    1
    83     5     2    1
    84    18    17    1
    85    29    28    1
    86    11    10    1
    87     2     3    1
    88     2     1    1
    89    17    14    1
    90     4     3    2
    91    30    28    1
    92    28    25    1
    93    14    13    1
    94    14    15    1
    95    10    12    1
    96    10     7    1
    97    13     8   am
    98    41    38    1
    99    36    35    1
   100     8     9    2
   101     8     7    1
   102    16    15    2
   103    25    26    1
   104    25    24    1
   105     7     6    1
   106    26    27    2
   107    26    31   am
   108    31    32    1
   109    32    35    1
   110    32    33    1
   111    38    39    1
   112    38    37    1
   113    49    47   am
   114    40    39    2
   115    39    42   am
   116    33    34    2
   117    42    43    1
   118    47    48    2
   119    47    46    1
   120    43    46    1
   121    43    44    1
   122    44    45    2
