@<TRIPOS>MOLECULE
tmp/1uehB01.pdb
 188 178 0 0 0
SMALL
GASTEIGER

@<TRIPOS>ATOM
      1  N         13.2630   34.7220   35.8870 N.3     9  MET9       -0.1245
      2  CA        11.7900   34.6430   36.0700 C.3     9  MET9        0.1570
      3  C         11.1740   33.2580   36.2640 C.2     9  MET9        0.2261
      4  O         10.3150   32.8340   35.4700 O.2     9  MET9       -0.2867
      5  CB        11.1110   35.2990   34.8560 C.3     9  MET9        0.0387
      6  CG        11.6670   36.7280   34.5380 C.3     9  MET9        0.0595
      7  SD        11.1310   37.3840   32.9340 S.3     9  MET9       -0.1393
      8  CE        12.0030   36.3110   31.7830 C.3     9  MET9        0.0692
      9  N          6.4680   30.0780   36.6330 N.3    12  ASN12      -0.1240
     10  CA         5.2670   29.9770   35.8020 C.3    12  ASN12       0.1653
     11  C          4.5750   28.6230   35.9470 C.2    12  ASN12       0.2266
     12  O          3.3800   28.5700   36.1110 O.2    12  ASN12      -0.2867
     13  CB         5.5680   30.1700   34.3090 C.3    12  ASN12       0.1155
     14  CG         5.8710   31.6290   33.9070 C.2    12  ASN12       0.2627
     15  OD1        6.1410   31.9150   32.7120 O.2    12  ASN12      -0.2716
     16  ND2        5.8380   32.5380   34.8630 N.am   12  ASN12      -0.0877
     17  N          2.1760   30.4640   31.5290 N.3    27  HIS27      -0.1241
     18  CA         3.0030   31.2370   30.6290 C.3    27  HIS27       0.1621
     19  C          2.3490   32.5580   30.2360 C.2    27  HIS27       0.2264
     20  O          3.0090   33.5910   30.1800 O.2    27  HIS27      -0.2867
     21  CB         3.4200   30.3680   29.4520 C.3    27  HIS27       0.0745
     22  CG         4.5240   29.4270   29.8330 C.ar   27  HIS27       0.0817
     23  ND1        4.5170   28.0820   29.5250 N.ar   27  HIS27      -0.2268
     24  CD2        5.6370   29.6390   30.5800 C.ar   27  HIS27       0.1154
     25  CE1        5.5760   27.5060   30.0720 C.ar   27  HIS27       0.1986
     26  NE2        6.2710   28.4300   30.7190 N.ar   27  HIS27      -0.2212
     27  N          2.7570   34.7260   33.1040 N.3    30  GLY30      -0.1210
     28  CA         4.1570   35.1320   33.1590 C.3    30  GLY30       0.1956
     29  C          4.4250   36.2870   32.1900 C.2    30  GLY30       0.2611
     30  O          5.1630   37.2330   32.5260 O.2    30  GLY30      -0.2717
     31  N          3.8320   36.2530   30.9960 N.am   31  ALA31      -0.1979
     32  CA         4.0480   37.3700   30.0330 C.3    31  ALA31       0.1597
     33  C          3.4320   38.6410   30.5720 C.2    31  ALA31       0.2287
     34  O          4.0090   39.7070   30.4430 O.2    31  ALA31      -0.2864
     35  CB         3.4720   37.0490   28.6650 C.3    31  ALA31       0.0319
     36  N          5.8460   40.0910   32.8340 N.3    34  VAL34      -0.1245
     37  CA         6.9330   40.7620   32.1310 C.3    34  VAL34       0.1561
     38  C          6.5010   42.1750   31.7480 C.2    34  VAL34       0.2260
     39  O          7.2280   43.1370   31.9930 O.2    34  VAL34      -0.2867
     40  CB         7.3300   40.0090   30.8480 C.3    34  VAL34       0.0252
     41  CG1        8.2890   40.8380   29.9910 C.3    34  VAL34       0.0019
     42  CG2        8.0080   38.6790   31.2520 C.3    34  VAL34       0.0019
     43  N         16.2740   40.3750   31.0630 N.3    51  LEU51      -0.1231
     44  CA        15.4660   39.2400   31.4210 C.3    51  LEU51       0.1693
     45  C         16.0340   37.9300   30.8570 C.2    51  LEU51       0.2592
     46  O         16.3880   37.8580   29.6970 O.2    51  LEU51      -0.2718
     47  CB        14.0470   39.4600   30.8820 C.3    51  LEU51       0.0284
     48  CG        13.4270   40.7870   31.3330 C.3    51  LEU51       0.0019
     49  CD1       11.9830   40.8850   30.7620 C.3    51  LEU51       0.0001
     50  CD2       13.4350   40.8910   32.8980 C.3    51  LEU51       0.0001
     51  N         16.0860   36.8940   31.6760 N.am   52  TYR52      -0.1962
     52  CA        16.6080   35.6160   31.1810 C.3    52  TYR52       0.1771
     53  C         15.4700   34.8570   30.4860 C.2    52  TYR52       0.2619
     54  O         14.5930   34.3110   31.1700 O.2    52  TYR52      -0.2715
     55  CB        17.1520   34.8020   32.3610 C.3    52  TYR52       0.0574
     56  CG        18.0870   33.6790   31.9590 C.ar   52  TYR52      -0.0198
     57  CD1       18.5940   32.8110   32.9200 C.ar   52  TYR52      -0.0009
     58  CD2       18.5230   33.5460   30.6430 C.ar   52  TYR52      -0.0009
     59  CE1       19.5420   31.8260   32.5910 C.ar   52  TYR52       0.0417
     60  CE2       19.4780   32.5500   30.2970 C.ar   52  TYR52       0.0417
     61  CZ        19.9720   31.7140   31.2850 C.ar   52  TYR52       0.1957
     62  OH        20.9680   30.7740   30.9990 O.3    52  TYR52      -0.2866
     63  N         15.4640   34.8020   29.1420 N.am   53  ALA53      -0.1963
     64  CA        14.3950   34.0640   28.4580 C.3    53  ALA53       0.1728
     65  C         14.7000   32.5580   28.5250 C.2    53  ALA53       0.2616
     66  O         13.8600   31.7750   28.9900 O.2    53  ALA53      -0.2715
     67  CB        14.2570   34.5150   26.9790 C.3    53  ALA53       0.0334
     68  N         15.8810   32.1610   28.0630 N.am   54  PHE54      -0.1974
     69  CA        16.2970   30.7380   28.1260 C.3    54  PHE54       0.1639
     70  C         17.7460   30.4960   27.7340 C.2    54  PHE54       0.2290
     71  O         18.3480   31.2900   26.9990 O.2    54  PHE54      -0.2864
     72  CB        15.3760   29.8340   27.2650 C.3    54  PHE54       0.0560
     73  CG        15.0650   30.3820   25.8910 C.ar   54  PHE54      -0.0200
     74  CD1       15.9490   30.1960   24.8230 C.ar   54  PHE54      -0.0042
     75  CD2       13.8700   31.0700   25.6700 C.ar   54  PHE54      -0.0042
     76  CE1       15.6510   30.6870   23.5370 C.ar   54  PHE54      -0.0003
     77  CE2       13.5440   31.5690   24.4110 C.ar   54  PHE54      -0.0003
     78  CZ        14.4320   31.3790   23.3310 C.ar   54  PHE54      -0.0000
     79  N          6.7730   26.9620   17.8300 N.3    69  LEU69      -0.1245
     80  CA         7.1340   27.8580   18.9120 C.3    69  LEU69       0.1561
     81  C          7.9030   29.0710   18.3870 C.2    69  LEU69       0.2260
     82  O          7.6760   30.2040   18.8090 O.2    69  LEU69      -0.2867
     83  CB         7.9920   27.0970   19.9260 C.3    69  LEU69       0.0270
     84  CG         8.1790   27.7690   21.2850 C.3    69  LEU69       0.0019
     85  CD1        6.8240   28.1790   21.8790 C.3    69  LEU69       0.0001
     86  CD2        8.9140   26.7850   22.2160 C.3    69  LEU69       0.0001
     87  N          5.6260   31.4600   16.9340 N.3    72  LEU72      -0.1231
     88  CA         4.8850   32.2090   17.9570 C.3    72  LEU72       0.1693
     89  C          5.7720   33.3610   18.4730 C.2    72  LEU72       0.2592
     90  O          5.2560   34.4420   18.8320 O.2    72  LEU72      -0.2718
     91  CB         4.4570   31.3060   19.1200 C.3    72  LEU72       0.0284
     92  CG         3.4280   30.2490   18.7020 C.3    72  LEU72       0.0019
     93  CD1        3.1610   29.2580   19.8560 C.3    72  LEU72       0.0001
     94  CD2        2.1530   30.9420   18.3110 C.3    72  LEU72       0.0001
     95  N          7.0870   33.1420   18.4950 N.am   73  PHE73      -0.1976
     96  CA         8.0160   34.1940   18.9360 C.3    73  PHE73       0.1639
     97  C          8.0130   35.3010   17.8640 C.2    73  PHE73       0.2290
     98  O          8.0410   36.4820   18.1940 O.2    73  PHE73      -0.2864
     99  CB         9.4590   33.6810   19.0870 C.3    73  PHE73       0.0560
    100  CG         9.6600   32.7120   20.2320 C.ar   73  PHE73      -0.0200
    101  CD1        8.7430   32.6230   21.2690 C.ar   73  PHE73      -0.0042
    102  CD2       10.8100   31.9420   20.2860 C.ar   73  PHE73      -0.0042
    103  CE1        8.9710   31.7730   22.3640 C.ar   73  PHE73      -0.0003
    104  CE2       11.0560   31.0850   21.3870 C.ar   73  PHE73      -0.0003
    105  CZ        10.1200   31.0120   22.4210 C.ar   73  PHE73      -0.0000
    106  N          4.9030   37.3470   18.4570 N.3    76  ALA76      -0.1231
    107  CA         4.9420   38.2550   19.6290 C.3    76  ALA76       0.1694
    108  C          5.7290   39.5280   19.3070 C.2    76  ALA76       0.2591
    109  O          5.3320   40.6250   19.6690 O.2    76  ALA76      -0.2718
    110  CB         5.5530   37.5460   20.8590 C.3    76  ALA76       0.0304
    111  N          6.8390   39.3860   18.6090 N.am   77  LEU77      -0.1980
    112  CA         7.6270   40.5400   18.2260 C.3    77  LEU77       0.1596
    113  C          6.7950   41.4150   17.2630 C.2    77  LEU77       0.2287
    114  O          6.7760   42.6380   17.3840 O.2    77  LEU77      -0.2864
    115  CB         8.9130   40.0850   17.5500 C.3    77  LEU77       0.0297
    116  CG         9.9620   39.4360   18.4700 C.3    77  LEU77       0.0022
    117  CD1       11.0980   38.7970   17.6420 C.3    77  LEU77       0.0001
    118  CD2       10.5290   40.5170   19.4050 C.3    77  LEU77       0.0001
    119  N         15.0270   47.6640   22.3250 N.3    91  LEU91      -0.1245
    120  CA        14.9930   46.2060   22.5310 C.3    91  LEU91       0.1561
    121  C         16.2600   45.5620   21.9680 C.2    91  LEU91       0.2260
    122  O         16.6220   45.8250   20.8180 O.2    91  LEU91      -0.2867
    123  CB        13.7720   45.6060   21.8030 C.3    91  LEU91       0.0270
    124  CG        13.5950   44.0850   21.8840 C.3    91  LEU91       0.0019
    125  CD1       13.3390   43.6590   23.3650 C.3    91  LEU91       0.0001
    126  CD2       12.3680   43.6960   21.0490 C.3    91  LEU91       0.0001
    127  N         18.4510   41.6470   21.8770 N.3    93  ILE93      -0.1245
    128  CA        18.4450   40.2460   22.2940 C.3    93  ILE93       0.1561
    129  C         19.9450   39.9110   22.4860 C.2    93  ILE93       0.2260
    130  O         20.7840   40.2620   21.6290 O.2    93  ILE93      -0.2867
    131  CB        17.8180   39.3210   21.2060 C.3    93  ILE93       0.0252
    132  CG1       16.2890   39.2970   21.3280 C.3    93  ILE93       0.0019
    133  CG2       18.3420   37.8780   21.3610 C.3    93  ILE93       0.0019
    134  CD1       15.6070   40.6510   21.3080 C.3    93  ILE93       0.0001
    135  N         18.7500   30.1220   16.1290 N.3   100  PHE100     -0.1241
    136  CA        17.3460   30.2880   15.7180 C.3   100  PHE100      0.1605
    137  C         17.1950   30.0620   14.2100 C.2   100  PHE100      0.2264
    138  O         18.1740   30.0920   13.4950 O.2   100  PHE100     -0.2867
    139  CB        16.8680   31.7090   16.0270 C.3   100  PHE100      0.0534
    140  CG        16.6810   31.9910   17.4890 C.ar  100  PHE100     -0.0203
    141  CD1       15.9150   31.1250   18.2890 C.ar  100  PHE100     -0.0042
    142  CD2       17.1860   33.1660   18.0480 C.ar  100  PHE100     -0.0042
    143  CE1       15.6370   31.4260   19.6410 C.ar  100  PHE100     -0.0003
    144  CE2       16.9200   33.4870   19.4030 C.ar  100  PHE100     -0.0003
    145  CZ        16.1450   32.6200   20.1990 C.ar  100  PHE100     -0.0000
    146  N         13.3030   33.9150   12.2010 N.3   104  LEU104     -0.1245
    147  CA        13.3160   34.5570   13.5300 C.3   104  LEU104      0.1561
    148  C         14.5970   35.4090   13.7140 C.2   104  LEU104      0.2260
    149  O         14.5400   36.4740   14.3320 O.2   104  LEU104     -0.2867
    150  CB        13.1530   33.5150   14.6250 C.3   104  LEU104      0.0270
    151  CG        13.2210   34.0540   16.0710 C.3   104  LEU104      0.0019
    152  CD1       12.1140   35.1050   16.3430 C.3   104  LEU104      0.0001
    153  CD2       13.0520   32.8400   17.0070 C.3   104  LEU104      0.0001
    154  N         14.2610   39.3550   14.6670 N.3   108  ILE108     -0.1245
    155  CA        14.9510   39.9320   15.8310 C.3   108  ILE108      0.1561
    156  C         15.7670   41.1290   15.3250 C.2   108  ILE108      0.2260
    157  O         15.7000   42.2480   15.8880 O.2   108  ILE108     -0.2867
    158  CB        15.8840   38.8740   16.4810 C.3   108  ILE108      0.0252
    159  CG1       15.0320   37.8900   17.2810 C.3   108  ILE108      0.0019
    160  CG2       16.9510   39.5430   17.4020 C.3   108  ILE108      0.0019
    161  CD1       15.7930   36.6600   17.7740 C.3   108  ILE108      0.0001
    162  N         16.7850   40.9250   26.2570 N.3   125  ILE125     -0.1245
    163  CA        16.1610   39.6140   26.4500 C.3   125  ILE125      0.1561
    164  C         17.3240   38.6190   26.1720 C.2   125  ILE125      0.2260
    165  O         17.8400   38.5900   25.0670 O.2   125  ILE125     -0.2867
    166  CB        15.0490   39.3350   25.4030 C.3   125  ILE125      0.0252
    167  CG1       13.9440   40.4160   25.4920 C.3   125  ILE125      0.0019
    168  CG2       14.4350   37.9470   25.6600 C.3   125  ILE125      0.0019
    169  CD1       13.3930   40.6160   26.9050 C.3   125  ILE125      0.0001
    170  N         18.4320   35.2080   25.2960 N.3   127  ALA127     -0.1245
    171  CA        17.8480   33.9870   24.6860 C.3   127  ALA127      0.1562
    172  C         18.9820   33.1330   24.1060 C.2   127  ALA127      0.2260
    173  O         19.8690   33.6710   23.4580 O.2   127  ALA127     -0.2867
    174  CB        16.9030   34.3910   23.5850 C.3   127  ALA127      0.0290
    175  N          7.0740   33.8370   39.6170 N.3   205  TRP205     -0.1241
    176  CA         7.0560   34.9290   38.6440 C.3   205  TRP205      0.1605
    177  C          5.7000   35.5740   38.2920 C.2   205  TRP205      0.2264
    178  O          5.5940   36.8030   38.3060 O.2   205  TRP205     -0.2867
    179  CB         7.8230   34.5260   37.3600 C.3   205  TRP205      0.0550
    180  CG         7.8520   35.6380   36.3390 C.ar  205  TRP205      0.0003
    181  CD1        7.1870   35.6640   35.1400 C.ar  205  TRP205      0.0946
    182  CD2        8.4790   36.9260   36.4760 C.ar  205  TRP205      0.0152
    183  NE1        7.3480   36.8920   34.5290 N.ar  205  TRP205     -0.2442
    184  CE2        8.1350   37.6850   35.3280 C.ar  205  TRP205      0.0810
    185  CE3        9.2890   37.5140   37.4610 C.ar  205  TRP205      0.0012
    186  CZ2        8.5730   39.0000   35.1350 C.ar  205  TRP205      0.0191
    187  CZ3        9.7250   38.8380   37.2660 C.ar  205  TRP205      0.0001
    188  CH2        9.3650   39.5550   36.1150 C.ar  205  TRP205      0.0015
@<TRIPOS>BOND
     1   146   147    1
     2   138   137    2
     3   147   148    1
     4   147   150    1
     5   148   149    2
     6   137   136    1
     7   150   151    1
     8   154   155    1
     9   156   155    1
    10   156   157    2
    11   136   139    1
    12   136   135    1
    13   155   158    1
    14   139   140    1
    15   151   152    1
    16   151   153    1
    17   158   159    1
    18   158   160    1
    19    87    88    1
    20   113   114    2
    21   113   112    1
    22   159   161    1
    23   140   142   ar
    24   140   141   ar
    25   115   112    1
    26   115   116    1
    27   117   116    1
    28    79    80    1
    29    97    98    2
    30    97    96    1
    31    88    89    1
    32    88    91    1
    33   142   144   ar
    34   112   111    1
    35   141   143   ar
    36    94    92    1
    37    81    82    2
    38    81    80    1
    39   106   107    1
    40   116   118    1
    41    89    95   am
    42    89    90    2
    43    95    96    1
    44   111   108   am
    45    92    91    1
    46    92    93    1
    47    80    83    1
    48    96    99    1
    49    99   100    1
    50   108   107    1
    51   108   109    2
    52   144   145   ar
    53   107   110    1
    54   143   145   ar
    55    83    84    1
    56   100   102   ar
    57   100   101   ar
    58   102   104   ar
    59   122   121    2
    60   126   124    1
    61   131   132    1
    62   131   133    1
    63   131   128    1
    64   101   103   ar
    65    84    85    1
    66    84    86    1
    67   134   132    1
    68   104   105   ar
    69   130   129    2
    70   123   124    1
    71   123   120    1
    72   127   128    1
    73   124   125    1
    74   121   120    1
    75   128   129    1
    76   119   120    1
    77   103   105   ar
    78    78    76   ar
    79    78    77   ar
    80   173   172    2
    81    76    74   ar
    82   174   171    1
    83   172   171    1
    84    77    75   ar
    85   171   170    1
    86    74    73   ar
    87   165   164    2
    88   166   167    1
    89   166   168    1
    90   166   163    1
    91   167   169    1
    92    75    73   ar
    93    73    72    1
    94   164   163    1
    95   162   163    1
    96    67    64    1
    97    71    70    2
    98    72    69    1
    99    70    69    1
   100    68    69    1
   101    68    65   am
   102    64    65    1
   103    64    63    1
   104    65    66    2
   105    35    32    1
   106    63    53   am
   107    21    22    1
   108    21    18    1
   109    23    22   ar
   110    23    25   ar
   111    46    45    2
   112    22    24   ar
   113    41    40    1
   114    32    33    1
   115    32    31    1
   116    25    26   ar
   117    20    19    2
   118    19    18    1
   119    60    58   ar
   120    60    61   ar
   121    34    33    2
   122    53    54    2
   123    53    52    1
   124    24    26   ar
   125    18    17    1
   126    58    56   ar
   127    49    48    1
   128    40    42    1
   129    40    37    1
   130    45    44    1
   131    45    51   am
   132    47    48    1
   133    47    44    1
   134    31    29   am
   135    62    61    1
   136    43    44    1
   137    52    51    1
   138    52    55    1
   139    61    59   ar
   140    48    50    1
   141    38    39    2
   142    38    37    1
   143     8     7    1
   144    56    55    1
   145    56    57   ar
   146    37    36    1
   147    29    30    2
   148    29    28    1
   149    59    57   ar
   150    15    14    2
   151     7     6    1
   152    27    28    1
   153    14    13    1
   154    14    16   am
   155    13    10    1
   156   183   181   ar
   157   183   184   ar
   158     6     5    1
   159     5     2    1
   160   186   184   ar
   161   186   188   ar
   162   181   180   ar
   163   184   182   ar
   164     4     3    2
   165    10    11    1
   166    10     9    1
   167     1     2    1
   168    11    12    2
   169     2     3    1
   170   188   187   ar
   171   180   182   ar
   172   180   179    1
   173   182   185   ar
   174   187   185   ar
   175   179   176    1
   176   177   178    2
   177   177   176    1
   178   176   175    1
