@<TRIPOS>MOLECULE
tmp/1ueiA00.pdb
 215 206 0 0 0
SMALL
GASTEIGER

@<TRIPOS>ATOM
      1  N         15.9590   35.4360   28.8510 N.3    11  THR11      -0.1203
      2  CA        15.7250   36.1830   30.0820 C.3    11  THR11       0.1994
      3  C         16.9800   36.8730   30.5960 C.2    11  THR11       0.2618
      4  O         18.0520   36.2720   30.6490 O.2    11  THR11      -0.2717
      5  CB        15.1860   35.2870   31.2250 C.3    11  THR11       0.1784
      6  OG1       14.9550   36.1020   32.3840 O.3    11  THR11      -0.2211
      7  CG2       16.1870   34.1840   31.5860 C.3    11  THR11       0.0376
      8  N         16.8200   38.1350   30.9850 N.am   12  ALA12      -0.1965
      9  CA        17.9120   38.9420   31.5100 C.3    12  ALA12       0.1728
     10  C         19.0850   39.0530   30.5430 C.2    12  ALA12       0.2617
     11  O         20.2320   39.1880   30.9600 O.2    12  ALA12      -0.2715
     12  CB        18.3820   38.3840   32.8410 C.3    12  ALA12       0.0334
     13  N         18.7890   39.0040   29.2500 N.am   13  SER13      -0.1936
     14  CA        19.8220   39.1060   28.2340 C.3    13  SER13       0.2055
     15  C         20.2410   40.5530   28.0210 C.2    13  SER13       0.2644
     16  O         21.2590   40.8140   27.3990 O.2    13  SER13      -0.2714
     17  CB        19.3260   38.5090   26.9140 C.3    13  SER13       0.2130
     18  OG        18.1010   39.0970   26.5090 O.3    13  SER13      -0.2179
     19  N         19.4550   41.4870   28.5540 N.am   14  GLY14      -0.1939
     20  CA        19.7500   42.9000   28.4060 C.3    14  GLY14       0.2014
     21  C         18.9470   43.5660   27.2990 C.2    14  GLY14       0.2639
     22  O         19.3950   44.5520   26.7080 O.2    14  GLY14      -0.2714
     23  N         17.7600   43.0370   27.0090 N.am   15  LYS15      -0.1963
     24  CA        16.9010   43.6050   25.9650 C.3    15  LYS15       0.1728
     25  C         16.4620   45.0440   26.2750 C.2    15  LYS15       0.2617
     26  O         16.4160   45.9030   25.3870 O.2    15  LYS15      -0.2715
     27  CB        15.6580   42.7310   25.7730 C.3    15  LYS15       0.0311
     28  CG        15.9670   41.3310   25.3060 C.3    15  LYS15       0.0038
     29  CD        14.7020   40.5040   25.1510 C.3    15  LYS15       0.0206
     30  CE        13.9380   40.3710   26.4600 C.3    15  LYS15       0.1093
     31  NZ        14.6810   39.5830   27.4710 N.3    15  LYS15      -0.1314
     32  N         16.1310   45.2970   27.5360 N.am   16  SER16      -0.1936
     33  CA        15.6930   46.6140   27.9540 C.3    16  SER16       0.2055
     34  C         16.8250   47.6230   27.8010 C.2    16  SER16       0.2643
     35  O         16.6230   48.7050   27.2460 O.2    16  SER16      -0.2714
     36  CB        15.2120   46.5650   29.4080 C.3    16  SER16       0.2130
     37  OG        14.2300   45.5510   29.5840 O.3    16  SER16      -0.2179
     38  N         18.0140   47.2720   28.2930 N.am   17  SER17      -0.1949
     39  CA        19.1780   48.1580   28.1770 C.3    17  SER17       0.1924
     40  C         19.4690   48.4980   26.7240 C.2    17  SER17       0.2314
     41  O         19.7380   49.6500   26.3870 O.2    17  SER17      -0.2863
     42  CB        20.4220   47.5090   28.7750 C.3    17  SER17       0.2116
     43  OG        20.3180   47.4420   30.1790 O.3    17  SER17      -0.2180
     44  N          6.3570   41.9720   28.5860 N.3    36  ASP36      -0.1239
     45  CA         6.0220   41.6450   29.9700 C.3    36  ASP36       0.1674
     46  C          4.7510   42.3170   30.4740 C.2    36  ASP36       0.2266
     47  O          4.0450   41.7660   31.3160 O.2    36  ASP36      -0.2867
     48  CB         7.1910   42.0190   30.8830 C.3    36  ASP36       0.1410
     49  CG         8.4000   41.1410   30.6610 C.2    36  ASP36       0.3668
     50  OD1        8.2600   40.1090   29.9610 O.co2  36  ASP36      -0.2456
     51  OD2        9.4830   41.4800   31.1920 O.co2  36  ASP36      -0.2456
     52  N          1.5200   39.9970   30.3100 N.3    39  TYR39      -0.1241
     53  CA         1.4110   38.6390   30.8170 C.3    39  TYR39       0.1605
     54  C         -0.0730   38.4520   31.1310 C.2    39  TYR39       0.2264
     55  O         -0.7700   39.4250   31.4270 O.2    39  TYR39      -0.2867
     56  CB         2.2620   38.4460   32.0760 C.3    39  TYR39       0.0534
     57  CG         3.6000   37.7850   31.8030 C.ar   39  TYR39      -0.0201
     58  CD1        3.6770   36.4130   31.5390 C.ar   39  TYR39      -0.0009
     59  CD2        4.7870   38.5320   31.7720 C.ar   39  TYR39      -0.0009
     60  CE1        4.8930   35.8030   31.2510 C.ar   39  TYR39       0.0417
     61  CE2        6.0120   37.9270   31.4870 C.ar   39  TYR39       0.0417
     62  CZ         6.0560   36.5620   31.2260 C.ar   39  TYR39       0.1957
     63  OH         7.2570   35.9520   30.9410 O.3    39  TYR39      -0.2866
     64  N          6.1380   30.7410   33.0060 N.3    57  PHE57      -0.1227
     65  CA         5.9670   32.0950   32.4810 C.3    57  PHE57       0.1736
     66  C          6.7970   32.2920   31.2170 C.2    57  PHE57       0.2595
     67  O          6.8680   33.3900   30.6720 O.2    57  PHE57      -0.2718
     68  CB         6.3780   33.1270   33.5340 C.3    57  PHE57       0.0547
     69  CG         5.4320   33.2150   34.7010 C.ar   57  PHE57      -0.0202
     70  CD1        4.1520   33.7640   34.5390 C.ar   57  PHE57      -0.0042
     71  CD2        5.8150   32.7580   35.9630 C.ar   57  PHE57      -0.0042
     72  CE1        3.2690   33.8580   35.6190 C.ar   57  PHE57      -0.0003
     73  CE2        4.9420   32.8450   37.0540 C.ar   57  PHE57      -0.0003
     74  CZ         3.6660   33.3980   36.8800 C.ar   57  PHE57      -0.0000
     75  N          7.4040   31.2060   30.7510 N.am   58  ASP58      -0.1974
     76  CA         8.2510   31.2300   29.5700 C.3    58  ASP58       0.1709
     77  C          7.6600   30.5010   28.3760 C.2    58  ASP58       0.2293
     78  O          8.3360   30.2880   27.3640 O.2    58  ASP58      -0.2864
     79  CB         9.5940   30.6290   29.9240 C.3    58  ASP58       0.1436
     80  CG        10.3430   31.4620   30.9310 C.2    58  ASP58       0.3671
     81  OD1       11.0280   32.4180   30.5050 O.co2  58  ASP58      -0.2456
     82  OD2       10.2320   31.1700   32.1410 O.co2  58  ASP58      -0.2456
     83  N          2.0370   45.0820   34.8280 N.3    86  TYR86      -0.1241
     84  CA         2.1500   43.7950   35.5100 C.3    86  TYR86       0.1605
     85  C          2.9830   43.8980   36.7790 C.2    86  TYR86       0.2264
     86  O          3.9460   44.6550   36.8410 O.2    86  TYR86      -0.2867
     87  CB         2.7710   42.7690   34.5580 C.3    86  TYR86       0.0534
     88  CG         2.6970   41.3320   35.0230 C.ar   86  TYR86      -0.0201
     89  CD1        1.4690   40.7140   35.2440 C.ar   86  TYR86      -0.0009
     90  CD2        3.8550   40.5770   35.2020 C.ar   86  TYR86      -0.0009
     91  CE1        1.3930   39.3780   35.6300 C.ar   86  TYR86       0.0417
     92  CE2        3.7880   39.2380   35.5880 C.ar   86  TYR86       0.0417
     93  CZ         2.5520   38.6460   35.7960 C.ar   86  TYR86       0.1957
     94  OH         2.4720   37.3190   36.1450 O.3    86  TYR86      -0.2866
     95  N          5.3280   41.8180   39.1880 N.3    88  PHE88      -0.1241
     96  CA         6.1070   40.5990   39.3340 C.3    88  PHE88       0.1605
     97  C          6.1410   40.0160   40.7370 C.2    88  PHE88       0.2264
     98  O          6.4380   38.8320   40.9050 O.2    88  PHE88      -0.2867
     99  CB         7.5350   40.8290   38.8320 C.3    88  PHE88       0.0534
    100  CG         7.6240   41.0330   37.3520 C.ar   88  PHE88      -0.0203
    101  CD1        7.4300   39.9620   36.4790 C.ar   88  PHE88      -0.0042
    102  CD2        7.8770   42.2920   36.8220 C.ar   88  PHE88      -0.0042
    103  CE1        7.4860   40.1480   35.0940 C.ar   88  PHE88      -0.0003
    104  CE2        7.9340   42.4880   35.4390 C.ar   88  PHE88      -0.0003
    105  CZ         7.7380   41.4150   34.5720 C.ar   88  PHE88      -0.0000
    106  N          2.5040   38.4050   40.7090 N.3    91  HIS91      -0.1241
    107  CA         2.1530   37.6580   39.5010 C.3    91  HIS91       0.1621
    108  C          0.7470   38.0740   39.0870 C.2    91  HIS91       0.2264
    109  O         -0.0780   37.2380   38.7160 O.2    91  HIS91      -0.2867
    110  CB         2.1830   36.1460   39.7710 C.3    91  HIS91       0.0745
    111  CG         3.5040   35.6370   40.2620 C.ar   91  HIS91       0.0817
    112  ND1        4.6290   35.5830   39.4660 N.ar   91  HIS91      -0.2268
    113  CD2        3.8760   35.1490   41.4690 C.ar   91  HIS91       0.1154
    114  CE1        5.6360   35.0860   40.1620 C.ar   91  HIS91       0.1986
    115  NE2        5.2070   34.8140   41.3810 N.ar   91  HIS91      -0.2212
    116  N         10.0920   44.8900   23.3780 N.3   109  GLU109     -0.1231
    117  CA        11.0060   43.8630   23.8430 C.3   109  GLU109      0.1699
    118  C         10.3660   42.8300   24.7610 C.2   109  GLU109      0.2593
    119  O          9.6330   43.1680   25.6900 O.2   109  GLU109     -0.2718
    120  CB        12.1690   44.5230   24.5700 C.3   109  GLU109      0.0402
    121  CG        11.7560   45.1990   25.8600 C.3   109  GLU109      0.1161
    122  CD        11.6520   44.2350   27.0270 C.2   109  GLU109      0.3649
    123  OE1       12.0760   43.0640   26.8950 O.co2 109  GLU109     -0.2457
    124  OE2       11.1540   44.6540   28.0890 O.co2 109  GLU109     -0.2457
    125  N         10.6800   41.5660   24.5080 N.am  110  GLY110     -0.1942
    126  CA        10.1460   40.4890   25.3160 C.3   110  GLY110      0.2014
    127  C         10.7970   39.1720   24.9220 C.2   110  GLY110      0.2638
    128  O         11.2820   39.0190   23.7980 O.2   110  GLY110     -0.2714
    129  N         10.8100   38.2140   25.8380 N.am  111  ILE111     -0.1977
    130  CA        11.4220   36.9300   25.5500 C.3   111  ILE111      0.1596
    131  C         10.8080   36.1840   24.3760 C.2   111  ILE111      0.2287
    132  O         11.4580   35.3280   23.7930 O.2   111  ILE111     -0.2864
    133  CB        11.4050   36.0190   26.7840 C.3   111  ILE111      0.0276
    134  CG1        9.9770   35.9000   27.3280 C.3   111  ILE111      0.0022
    135  CG2       12.3740   36.5700   27.8370 C.3   111  ILE111      0.0022
    136  CD1        9.8540   34.9230   28.4780 C.3   111  ILE111      0.0001
    137  N         22.2370   37.5260   36.4910 N.3   139  ARG139     -0.1231
    138  CA        21.3860   38.7070   36.5380 C.3   139  ARG139      0.1694
    139  C         19.9840   38.3490   37.0320 C.2   139  ARG139      0.2591
    140  O         19.4410   39.0140   37.9130 O.2   139  ARG139     -0.2718
    141  CB        21.2530   39.3470   35.1560 C.3   139  ARG139      0.0321
    142  CG        22.5170   39.8540   34.5180 C.3   139  ARG139      0.0489
    143  CD        22.1020   40.8750   33.4900 C.3   139  ARG139      0.2205
    144  NE        23.0150   41.0140   32.3630 N.pl3 139  ARG139     -0.0865
    145  CZ        22.8060   41.8690   31.3650 C.cat 139  ARG139      0.5346
    146  NH1       21.7170   42.6420   31.3840 N.pl3 139  ARG139      0.1354
    147  NH2       23.6720   41.9540   30.3540 N.pl3 139  ARG139      0.1354
    148  N         19.4020   37.3140   36.4320 N.am  140  ARG140     -0.1980
    149  CA        18.0700   36.8440   36.7880 C.3   140  ARG140      0.1597
    150  C         17.9420   36.6850   38.2990 C.2   140  ARG140      0.2287
    151  O         16.9900   37.1740   38.9020 O.2   140  ARG140     -0.2864
    152  CB        17.7940   35.5090   36.0870 C.3   140  ARG140      0.0334
    153  CG        16.5400   34.7570   36.5480 C.3   140  ARG140      0.0492
    154  CD        15.2630   35.4170   36.0770 C.3   140  ARG140      0.2205
    155  NE        14.0760   34.6120   36.3730 N.pl3 140  ARG140     -0.0865
    156  CZ        13.2130   34.1810   35.4550 C.cat 140  ARG140      0.5346
    157  NH1       13.4010   34.4670   34.1770 N.pl3 140  ARG140      0.1354
    158  NH2       12.1480   33.4790   35.8170 N.pl3 140  ARG140      0.1354
    159  N         18.2410   40.1550   40.1560 N.3   143  ARG143     -0.1231
    160  CA        17.0890   40.9810   39.8110 C.3   143  ARG143      0.1694
    161  C         15.8180   40.4270   40.4390 C.2   143  ARG143      0.2592
    162  O         14.9700   41.1790   40.9110 O.2   143  ARG143     -0.2718
    163  CB        16.9140   41.0380   38.2940 C.3   143  ARG143      0.0321
    164  CG        15.6890   41.8090   37.8380 C.3   143  ARG143      0.0489
    165  CD        15.2370   41.3440   36.4640 C.3   143  ARG143      0.2205
    166  NE        14.7370   39.9710   36.5070 N.pl3 143  ARG143     -0.0865
    167  CZ        14.4370   39.2510   35.4320 C.cat 143  ARG143      0.5346
    168  NH1       14.5900   39.7660   34.2200 N.pl3 143  ARG143      0.1354
    169  NH2       13.9710   38.0180   35.5670 N.pl3 143  ARG143      0.1354
    170  N         15.6800   39.1080   40.4290 N.am  144  ASP144     -0.1974
    171  CA        14.5030   38.4810   41.0050 C.3   144  ASP144      0.1709
    172  C         14.4420   38.6890   42.5120 C.2   144  ASP144      0.2293
    173  O         13.3870   39.0100   43.0550 O.2   144  ASP144     -0.2864
    174  CB        14.4800   36.9880   40.6680 C.3   144  ASP144      0.1436
    175  CG        13.8810   36.7160   39.3060 C.2   144  ASP144      0.3671
    176  OD1       13.6030   37.6930   38.5720 O.co2 144  ASP144     -0.2456
    177  OD2       13.6890   35.5310   38.9690 O.co2 144  ASP144     -0.2456
    178  N         11.8760   41.5890   42.3950 N.3   148  ARG148     -0.1245
    179  CA        10.6340   40.8320   42.3240 C.3   148  ARG148      0.1563
    180  C         10.3210   40.0120   43.5720 C.2   148  ARG148      0.2260
    181  O          9.4710   39.1210   43.5430 O.2   148  ARG148     -0.2867
    182  CB        10.6710   39.9510   41.0730 C.3   148  ARG148      0.0307
    183  CG        10.9440   40.7640   39.8150 C.3   148  ARG148      0.0489
    184  CD        11.0630   39.9180   38.5630 C.3   148  ARG148      0.2205
    185  NE        11.2050   40.7720   37.3870 N.pl3 148  ARG148     -0.0865
    186  CZ        11.1600   40.3500   36.1270 C.cat 148  ARG148      0.5346
    187  NH1       10.9780   39.0670   35.8540 N.pl3 148  ARG148      0.1354
    188  NH2       11.2790   41.2240   35.1370 N.pl3 148  ARG148      0.1354
    189  N         11.7710   37.4850   45.4490 N.3   150  ARG150     -0.1245
    190  CA        11.7330   36.0400   45.3410 C.3   150  ARG150      0.1563
    191  C         12.9110   35.4160   46.0480 C.2   150  ARG150      0.2260
    192  O         13.8680   36.1060   46.3930 O.2   150  ARG150     -0.2867
    193  CB        11.6870   35.6450   43.8740 C.3   150  ARG150      0.0307
    194  CG        10.6390   36.4440   43.1290 C.3   150  ARG150      0.0489
    195  CD        10.0140   35.6710   42.0010 C.3   150  ARG150      0.2205
    196  NE         9.1780   36.5320   41.1760 N.pl3 150  ARG150     -0.0865
    197  CZ         8.6530   36.1520   40.0200 C.cat 150  ARG150      0.5346
    198  NH1        8.8780   34.9280   39.5710 N.pl3 150  ARG150      0.1354
    199  NH2        7.9320   37.0020   39.3020 N.pl3 150  ARG150      0.1354
    200  N         12.7110   27.2700   39.3130 N.3   158  GLN158     -0.1245
    201  CA        11.8660   27.6910   38.2030 C.3   158  GLN158      0.1566
    202  C         12.6780   27.8070   36.9120 C.2   158  GLN158      0.2260
    203  O         12.1840   27.4740   35.8180 O.2   158  GLN158     -0.2867
    204  CB        11.2010   29.0320   38.5200 C.3   158  GLN158      0.0367
    205  CG        10.3950   29.6140   37.3650 C.3   158  GLN158      0.0905
    206  CD         9.9650   31.0370   37.6360 C.2   158  GLN158      0.2608
    207  OE1        9.5370   31.7530   36.7340 O.2   158  GLN158     -0.2717
    208  NE2       10.0780   31.4570   38.8910 N.am  158  GLN158     -0.0878
    209  N         12.2610   28.0250   32.6530 N.3   163  VAL163     -0.1245
    210  CA        12.9760   29.0130   31.8410 C.3   163  VAL163      0.1561
    211  C         13.9350   28.4460   30.7860 C.2   163  VAL163      0.2260
    212  O         13.7620   28.7070   29.5960 O.2   163  VAL163     -0.2867
    213  CB        13.7530   30.0080   32.7300 C.3   163  VAL163      0.0252
    214  CG1       14.3320   31.1180   31.8730 C.3   163  VAL163      0.0019
    215  CG2       12.8350   30.5780   33.7960 C.3   163  VAL163      0.0019
@<TRIPOS>BOND
     1   116   117    1
     2   132   131    2
     3   128   127    2
     4   117   120    1
     5   117   118    1
     6   131   130    1
     7   125   118   am
     8   125   126    1
     9   120   121    1
    10   118   119    2
    11   127   126    1
    12   127   129   am
    13    29    28    1
    14    29    30    1
    15    28    27    1
    16    26    25    2
    17   130   129    1
    18   130   133    1
    19    27    24    1
    20   121   122    1
    21    24    25    1
    22    24    23    1
    23    25    32   am
    24    41    40    2
    25    30    31    1
    26    18    17    1
    27    22    21    2
    28    40    39    1
    29   133   134    1
    30   133   135    1
    31   123   122   ar
    32    17    14    1
    33    23    21   am
    34   122   124   ar
    35    35    34    2
    36    21    20    1
    37   134   136    1
    38    78    77    2
    39    16    15    2
    40    32    33    1
    41    34    33    1
    42    34    38   am
    43    33    36    1
    44    15    14    1
    45    15    19   am
    46    39    38    1
    47    39    42    1
    48    14    13    1
    49    77    76    1
    50    20    19    1
    51    44    45    1
    52    42    43    1
    53     1     2    1
    54    13    10   am
    55    36    37    1
    56    76    79    1
    57    76    75    1
    58   212   211    2
    59    79    80    1
    60    50    49   ar
    61    45    46    1
    62    45    48    1
    63     2     3    1
    64     2     5    1
    65    52    53    1
    66   147   145    1
    67    46    47    2
    68    81    80   ar
    69    10    11    2
    70    10     9    1
    71     3     4    2
    72     3     8   am
    73    49    48    1
    74    49    51   ar
    75    67    66    2
    76    75    66   am
    77   211   210    1
    78    53    54    1
    79    53    56    1
    80    80    82   ar
    81    63    62    1
    82     8     9    1
    83    54    55    2
    84    66    65    1
    85     5     7    1
    86     5     6    1
    87    62    60   ar
    88    62    61   ar
    89    60    58   ar
    90   145   146    1
    91   145   144    2
    92    61    59   ar
    93     9    12    1
    94    58    57   ar
    95    59    57   ar
    96    57    56    1
    97   210   209    1
    98   210   213    1
    99   214   213    1
   100   144   143    1
   101    65    64    1
   102    65    68    1
   103   213   215    1
   104   143   142    1
   105    68    69    1
   106   157   156    1
   107   168   167    1
   108   142   141    1
   109    70    69   ar
   110    70    72   ar
   111    87    88    1
   112    87    84    1
   113   105   103   ar
   114   105   104   ar
   115    69    71   ar
   116    83    84    1
   117    88    90   ar
   118    88    89   ar
   119   103   101   ar
   120   188   186    1
   121   141   138    1
   122    90    92   ar
   123    89    91   ar
   124   167   169    1
   125   167   166    2
   126   104   102   ar
   127   156   158    1
   128   156   155    2
   129    84    85    1
   130    92    93   ar
   131    72    74   ar
   132    91    93   ar
   133    93    94    1
   134   203   202    2
   135   187   186    1
   136    71    73   ar
   137   154   155    1
   138   154   153    1
   139   152   153    1
   140   152   149    1
   141   186   185    2
   142   148   149    1
   143   148   139   am
   144   165   166    1
   145   165   164    1
   146   101   100   ar
   147   137   138    1
   148   138   139    1
   149   207   206    2
   150    85    86    2
   151   149   150    1
   152   102   100   ar
   153    74    73   ar
   154   202   201    1
   155   139   140    2
   156   100    99    1
   157   205   206    1
   158   205   204    1
   159   185   184    1
   160   206   208   am
   161   164   163    1
   162   201   204    1
   163   201   200    1
   164   163   160    1
   165   150   151    2
   166   184   183    1
   167   176   175   ar
   168   109   108    2
   169    99    96    1
   170   177   175   ar
   171   108   107    1
   172    95    96    1
   173   199   197    1
   174   175   174    1
   175    96    97    1
   176   112   114   ar
   177   112   111   ar
   178   107   110    1
   179   107   106    1
   180   198   197    1
   181   110   111    1
   182   160   159    1
   183   160   161    1
   184   183   182    1
   185   197   196    2
   186   114   115   ar
   187   111   113   ar
   188   170   161   am
   189   170   171    1
   190   161   162    2
   191   174   171    1
   192    97    98    2
   193   171   172    1
   194   182   179    1
   195   196   195    1
   196   115   113   ar
   197   195   194    1
   198   179   178    1
   199   179   180    1
   200   172   173    2
   201   194   193    1
   202   181   180    2
   203   193   190    1
   204   190   189    1
   205   190   191    1
   206   191   192    2
