@<TRIPOS>MOLECULE
tmp/1uejA00.pdb
 148 140 0 0 0
SMALL
GASTEIGER

@<TRIPOS>ATOM
      1  N         17.6810   35.7800   29.0000 N.3    11  THR11      -0.1218
      2  CA        17.5700   36.6080   30.1890 C.3    11  THR11       0.1862
      3  C         18.9210   37.1650   30.6270 C.2    11  THR11       0.2287
      4  O         19.9260   36.4460   30.6530 O.2    11  THR11      -0.2866
      5  CB        16.9230   35.8210   31.3510 C.3    11  THR11       0.1770
      6  OG1       16.8790   36.6540   32.5130 O.3    11  THR11      -0.2211
      7  CG2       17.7090   34.5650   31.6690 C.3    11  THR11       0.0375
      8  N          8.2580   42.1560   28.8690 N.3    38  ASP38      -0.1239
      9  CA         7.9490   41.7450   30.2370 C.3    38  ASP38       0.1674
     10  C          6.7180   42.4670   30.7540 C.2    38  ASP38       0.2266
     11  O          6.0970   42.0340   31.7160 O.2    38  ASP38      -0.2867
     12  CB         9.1130   42.0520   31.1720 C.3    38  ASP38       0.1410
     13  CG        10.1590   40.9650   31.1770 C.2    38  ASP38       0.3668
     14  OD1        9.9860   39.9460   30.4640 O.co2  38  ASP38      -0.2456
     15  OD2       11.1590   41.1340   31.9090 O.co2  38  ASP38      -0.2456
     16  N          3.2100   40.2870   30.5350 N.3    41  TYR41      -0.1241
     17  CA         3.0480   38.9760   31.1140 C.3    41  TYR41       0.1605
     18  C          1.5530   38.7780   31.3850 C.2    41  TYR41       0.2264
     19  O          0.8730   39.6940   31.8430 O.2    41  TYR41      -0.2867
     20  CB         3.8630   38.8690   32.3960 C.3    41  TYR41       0.0534
     21  CG         5.1400   38.1020   32.1850 C.ar   41  TYR41      -0.0201
     22  CD1        5.1020   36.7570   31.8260 C.ar   41  TYR41      -0.0009
     23  CD2        6.3860   38.7160   32.3210 C.ar   41  TYR41      -0.0009
     24  CE1        6.2680   36.0320   31.6050 C.ar   41  TYR41       0.0417
     25  CE2        7.5650   38.0020   32.1010 C.ar   41  TYR41       0.0417
     26  CZ         7.4980   36.6540   31.7460 C.ar   41  TYR41       0.1957
     27  OH         8.6530   35.9190   31.5690 O.3    41  TYR41      -0.2866
     28  N          7.4450   30.6670   33.3500 N.3    59  PHE59      -0.1227
     29  CA         7.3720   32.0320   32.8450 C.3    59  PHE59       0.1736
     30  C          8.2690   32.2820   31.6290 C.2    59  PHE59       0.2595
     31  O          8.3970   33.4170   31.1760 O.2    59  PHE59      -0.2718
     32  CB         7.7760   33.0080   33.9480 C.3    59  PHE59       0.0547
     33  CG         6.8050   33.0900   35.0940 C.ar   59  PHE59      -0.0202
     34  CD1        5.5390   33.6440   34.9130 C.ar   59  PHE59      -0.0042
     35  CD2        7.1860   32.6870   36.3770 C.ar   59  PHE59      -0.0042
     36  CE1        4.6690   33.8050   35.9950 C.ar   59  PHE59      -0.0003
     37  CE2        6.3280   32.8420   37.4630 C.ar   59  PHE59      -0.0003
     38  CZ         5.0680   33.4040   37.2730 C.ar   59  PHE59      -0.0000
     39  N          8.8830   31.2240   31.1070 N.am   60  ASP60      -0.1974
     40  CA         9.7920   31.3300   29.9670 C.3    60  ASP60       0.1709
     41  C          9.2370   30.7200   28.6780 C.2    60  ASP60       0.2293
     42  O          9.9130   30.6990   27.6450 O.2    60  ASP60      -0.2864
     43  CB        11.1160   30.6530   30.3230 C.3    60  ASP60       0.1436
     44  CG        11.8680   31.3850   31.4140 C.2    60  ASP60       0.3671
     45  OD1       11.5640   31.1650   32.6040 O.co2  60  ASP60      -0.2456
     46  OD2       12.7560   32.1950   31.0800 O.co2  60  ASP60      -0.2456
     47  N          3.6930   45.2330   35.0630 N.3    88  TYR88      -0.1241
     48  CA         3.7310   43.9290   35.7340 C.3    88  TYR88       0.1605
     49  C          4.5960   43.9600   36.9890 C.2    88  TYR88       0.2264
     50  O          5.6520   44.5840   37.0020 O.2    88  TYR88      -0.2867
     51  CB         4.2720   42.8730   34.7650 C.3    88  TYR88       0.0534
     52  CG         4.1460   41.4440   35.2360 C.ar   88  TYR88      -0.0201
     53  CD1        2.9390   40.7550   35.1240 C.ar   88  TYR88      -0.0009
     54  CD2        5.2340   40.7750   35.7830 C.ar   88  TYR88      -0.0009
     55  CE1        2.8190   39.4340   35.5430 C.ar   88  TYR88       0.0417
     56  CE2        5.1270   39.4540   36.2090 C.ar   88  TYR88       0.0417
     57  CZ         3.9190   38.7870   36.0840 C.ar   88  TYR88       0.1957
     58  OH         3.8240   37.4690   36.4850 O.3    88  TYR88      -0.2866
     59  N          6.7690   41.7110   39.3180 N.3    90  PHE90      -0.1241
     60  CA         7.4480   40.4210   39.4350 C.3    90  PHE90       0.1605
     61  C          7.5270   39.8760   40.8530 C.2    90  PHE90       0.2264
     62  O          7.8630   38.7090   41.0530 O.2    90  PHE90      -0.2867
     63  CB         8.8680   40.4970   38.8530 C.3    90  PHE90       0.0534
     64  CG         8.9140   40.8140   37.3790 C.ar   90  PHE90      -0.0203
     65  CD1        8.8810   42.1320   36.9320 C.ar   90  PHE90      -0.0042
     66  CD2        8.9950   39.7910   36.4370 C.ar   90  PHE90      -0.0042
     67  CE1        8.9330   42.4290   35.5710 C.ar   90  PHE90      -0.0003
     68  CE2        9.0470   40.0790   35.0720 C.ar   90  PHE90      -0.0003
     69  CZ         9.0160   41.4010   34.6380 C.ar   90  PHE90      -0.0000
     70  N          3.7960   38.3670   40.8530 N.3    93  HIS93      -0.1241
     71  CA         3.3380   37.7030   39.6250 C.3    93  HIS93       0.1621
     72  C          1.9720   38.2740   39.2980 C.2    93  HIS93       0.2264
     73  O          1.0010   37.5340   39.1370 O.2    93  HIS93      -0.2867
     74  CB         3.2220   36.1910   39.8570 C.3    93  HIS93       0.0745
     75  CG         4.3880   35.6100   40.5930 C.ar   93  HIS93       0.0817
     76  ND1        5.6510   35.5360   40.0460 N.ar   93  HIS93      -0.2268
     77  CD2        4.4960   35.1260   41.8530 C.ar   93  HIS93       0.1154
     78  CE1        6.4860   35.0320   40.9370 C.ar   93  HIS93       0.1986
     79  NE2        5.8110   34.7740   42.0430 N.ar   93  HIS93      -0.2212
     80  N         12.5710   38.4630   25.8720 N.3   113  ILE113     -0.1245
     81  CA        13.2070   37.1680   25.6660 C.3   113  ILE113      0.1561
     82  C         12.5200   36.3240   24.6080 C.2   113  ILE113      0.2260
     83  O         13.0580   35.3020   24.2010 O.2   113  ILE113     -0.2867
     84  CB        13.2620   36.3190   26.9510 C.3   113  ILE113      0.0252
     85  CG1       11.8410   36.0110   27.4330 C.3   113  ILE113      0.0019
     86  CG2       14.1030   37.0220   28.0100 C.3   113  ILE113      0.0019
     87  CD1       11.7800   34.9360   28.5030 C.3   113  ILE113      0.0001
     88  N         21.3450   37.4510   36.4170 N.3   142  ARG142     -0.1245
     89  CA        20.0050   37.0160   36.7660 C.3   142  ARG142      0.1563
     90  C         19.8910   36.7650   38.2620 C.2   142  ARG142      0.2260
     91  O         18.9100   37.1590   38.8870 O.2   142  ARG142     -0.2867
     92  CB        19.6510   35.7450   35.9870 C.3   142  ARG142      0.0307
     93  CG        18.3140   35.0790   36.3710 C.3   142  ARG142      0.0489
     94  CD        17.0800   35.8380   35.8620 C.3   142  ARG142      0.2205
     95  NE        15.8350   35.2090   36.3090 N.pl3 142  ARG142     -0.0865
     96  CZ        14.9580   34.5920   35.5170 C.cat 142  ARG142      0.5346
     97  NH1       15.1700   34.5090   34.2120 N.pl3 142  ARG142      0.1354
     98  NH2       13.8610   34.0550   36.0340 N.pl3 142  ARG142      0.1354
     99  N         20.1350   40.2720   40.1900 N.3   145  ARG145     -0.1231
    100  CA        18.9560   41.1160   40.0170 C.3   145  ARG145      0.1694
    101  C         17.7300   40.5450   40.7190 C.2   145  ARG145      0.2592
    102  O         17.0440   41.2550   41.4410 O.2   145  ARG145     -0.2718
    103  CB        18.6120   41.3090   38.5430 C.3   145  ARG145      0.0321
    104  CG        17.4430   42.2540   38.3760 C.3   145  ARG145      0.0489
    105  CD        16.6210   41.9460   37.1550 C.3   145  ARG145      0.2205
    106  NE        16.1370   40.5650   37.1610 N.pl3 145  ARG145     -0.0865
    107  CZ        15.6310   39.9640   36.0890 C.cat 145  ARG145      0.5346
    108  NH1       15.5440   40.6360   34.9440 N.pl3 145  ARG145      0.1354
    109  NH2       15.2440   38.6940   36.1510 N.pl3 145  ARG145      0.1354
    110  N         17.4550   39.2650   40.4970 N.am  146  ASP146     -0.1974
    111  CA        16.3090   38.6080   41.1160 C.3   146  ASP146      0.1709
    112  C         16.3160   38.7680   42.6330 C.2   146  ASP146      0.2293
    113  O         15.3100   39.1500   43.2240 O.2   146  ASP146     -0.2864
    114  CB        16.2870   37.1220   40.7350 C.3   146  ASP146      0.1436
    115  CG        15.5210   36.8600   39.4380 C.2   146  ASP146      0.3671
    116  OD1       15.3520   37.8060   38.6390 O.co2 146  ASP146     -0.2456
    117  OD2       15.0930   35.7080   39.2120 O.co2 146  ASP146     -0.2456
    118  N         13.6420   41.6090   42.5900 N.3   150  ARG150     -0.1245
    119  CA        12.4060   40.8280   42.6160 C.3   150  ARG150      0.1563
    120  C         12.2410   40.0360   43.9000 C.2   150  ARG150      0.2260
    121  O         11.4120   39.1320   43.9870 O.2   150  ARG150     -0.2867
    122  CB        12.3590   39.9140   41.3910 C.3   150  ARG150      0.0307
    123  CG        12.5480   40.7040   40.1040 C.3   150  ARG150      0.0489
    124  CD        12.4490   39.8650   38.8450 C.3   150  ARG150      0.2205
    125  NE        12.6300   40.7030   37.6650 N.pl3 150  ARG150     -0.0865
    126  CZ        12.4100   40.3010   36.4180 C.cat 150  ARG150      0.5346
    127  NH1       12.0010   39.0640   36.1730 N.pl3 150  ARG150      0.1354
    128  NH2       12.5920   41.1400   35.4100 N.pl3 150  ARG150      0.1354
    129  N         13.8970   37.5410   45.7620 N.3   152  ARG152     -0.1245
    130  CA        13.8080   36.0950   45.6430 C.3   152  ARG152      0.1563
    131  C         14.9800   35.4440   46.3490 C.2   152  ARG152      0.2260
    132  O         15.8690   36.1360   46.8400 O.2   152  ARG152     -0.2867
    133  CB        13.7440   35.6980   44.1740 C.3   152  ARG152      0.0307
    134  CG        12.6180   36.4070   43.4710 C.3   152  ARG152      0.0489
    135  CD        12.1680   35.6990   42.2240 C.3   152  ARG152      0.2205
    136  NE        10.9800   36.3390   41.6710 N.pl3 152  ARG152     -0.0865
    137  CZ        10.3100   35.8800   40.6210 C.cat 152  ARG152      0.5346
    138  NH1       10.7130   34.7730   40.0120 N.pl3 152  ARG152      0.1354
    139  NH2        9.2440   36.5300   40.1740 N.pl3 152  ARG152      0.1354
    140  N         14.7870   27.5020   39.5340 N.3   160  GLN160     -0.1245
    141  CA        13.8910   27.9710   38.4800 C.3   160  GLN160      0.1566
    142  C         14.6530   27.9930   37.1550 C.2   160  GLN160      0.2260
    143  O         14.1190   27.6530   36.0940 O.2   160  GLN160     -0.2867
    144  CB        13.3810   29.3850   38.7990 C.3   160  GLN160      0.0367
    145  CG        12.3070   29.8780   37.8210 C.3   160  GLN160      0.0905
    146  CD        12.1350   31.4000   37.8100 C.2   160  GLN160      0.2608
    147  OE1       11.2390   31.9240   37.1380 O.2   160  GLN160     -0.2717
    148  NE2       12.9990   32.1150   38.5460 N.am  160  GLN160     -0.0878
@<TRIPOS>BOND
     1    83    82    2
     2    82    81    1
     3    81    80    1
     4    81    84    1
     5    84    85    1
     6    84    86    1
     7    85    87    1
     8    42    41    2
     9    41    40    1
    10     8     9    1
    11     1     2    1
    12    40    43    1
    13    40    39    1
    14     2     3    1
    15     2     5    1
    16     9    10    1
    17     9    12    1
    18    43    44    1
    19    14    13   ar
    20    16    17    1
    21     3     4    2
    22    10    11    2
    23    46    44   ar
    24    39    30   am
    25    17    18    1
    26    17    20    1
    27    12    13    1
    28    31    30    2
    29    13    15   ar
    30     5     7    1
    31     5     6    1
    32    18    19    2
    33    44    45   ar
    34    27    26    1
    35    24    26   ar
    36    24    22   ar
    37    30    29    1
    38    26    25   ar
    39    22    21   ar
    40    25    23   ar
    41    21    23   ar
    42    21    20    1
    43    29    28    1
    44    29    32    1
    45    32    33    1
    46    97    96    1
    47    69    68   ar
    48    69    67   ar
    49    51    52    1
    50    51    48    1
    51    34    33   ar
    52    34    36   ar
    53   108   107    1
    54    47    48    1
    55    68    66   ar
    56    33    35   ar
    57    53    52   ar
    58    53    55   ar
    59    52    54   ar
    60   128   126    1
    61    96    98    1
    62    96    95    2
    63    55    57   ar
    64    67    65   ar
    65    48    49    1
    66    54    56   ar
    67    94    95    1
    68    94    93    1
    69    92    93    1
    70    92    89    1
    71    36    38   ar
    72    57    56   ar
    73    57    58    1
    74   107   109    1
    75   107   106    2
    76   143   142    2
    77   127   126    1
    78    35    37   ar
    79    88    89    1
    80   126   125    2
    81    66    64   ar
    82    89    90    1
    83    65    64   ar
    84    49    50    2
    85   147   146    2
    86   105   106    1
    87   105   104    1
    88   142   141    1
    89    38    37   ar
    90    64    63    1
    91   125   124    1
    92   146   145    1
    93   146   148   am
    94   145   144    1
    95    90    91    2
    96   104   103    1
    97   141   144    1
    98   141   140    1
    99   103   100    1
   100   116   115   ar
   101   124   123    1
   102    63    60    1
   103    73    72    2
   104   117   115   ar
   105    72    71    1
   106    59    60    1
   107    60    61    1
   108   115   114    1
   109    71    74    1
   110    71    70    1
   111    74    75    1
   112   138   137    1
   113   100    99    1
   114   100   101    1
   115    76    75   ar
   116    76    78   ar
   117   123   122    1
   118   139   137    1
   119   110   101   am
   120   110   111    1
   121    75    77   ar
   122   137   136    2
   123   101   102    2
   124   114   111    1
   125    61    62    2
   126    78    79   ar
   127   111   112    1
   128   122   119    1
   129   136   135    1
   130    77    79   ar
   131   135   134    1
   132   118   119    1
   133   119   120    1
   134   112   113    2
   135   134   133    1
   136   120   121    2
   137   133   130    1
   138   130   129    1
   139   130   131    1
   140   131   132    2
