@<TRIPOS>MOLECULE
tmp/1uejA01.pdb
 101 94 0 0 0
SMALL
GASTEIGER

@<TRIPOS>ATOM
      1  N         17.6810   35.7800   29.0000 N.3    11  THR11      -0.1203
      2  CA        17.5700   36.6080   30.1890 C.3    11  THR11       0.1994
      3  C         18.9210   37.1650   30.6270 C.2    11  THR11       0.2618
      4  O         19.9260   36.4460   30.6530 O.2    11  THR11      -0.2717
      5  CB        16.9230   35.8210   31.3510 C.3    11  THR11       0.1784
      6  OG1       16.8790   36.6540   32.5130 O.3    11  THR11      -0.2211
      7  CG2       17.7090   34.5650   31.6690 C.3    11  THR11       0.0376
      8  N         18.9370   38.4530   30.9620 N.am   12  ALA12      -0.1965
      9  CA        20.1490   39.1450   31.3990 C.3    12  ALA12       0.1728
     10  C         21.2190   39.2200   30.3170 C.2    12  ALA12       0.2617
     11  O         22.4050   39.3000   30.6210 O.2    12  ALA12      -0.2715
     12  CB        20.7190   38.4810   32.6310 C.3    12  ALA12       0.0334
     13  N         20.7980   39.2070   29.0580 N.am   13  SER13      -0.1936
     14  CA        21.7270   39.2740   27.9410 C.3    13  SER13       0.2055
     15  C         22.1680   40.7020   27.6030 C.2    13  SER13       0.2644
     16  O         23.0770   40.8950   26.7910 O.2    13  SER13      -0.2714
     17  CB        21.0910   38.6250   26.7040 C.3    13  SER13       0.2130
     18  OG        19.8750   39.2660   26.3340 O.3    13  SER13      -0.2179
     19  N         21.5240   41.6910   28.2260 N.am   14  GLY14      -0.1939
     20  CA        21.8360   43.0910   27.9780 C.3    14  GLY14       0.2014
     21  C         20.9140   43.7250   26.9440 C.2    14  GLY14       0.2639
     22  O         21.2470   44.7470   26.3420 O.2    14  GLY14      -0.2714
     23  N         19.7450   43.1280   26.7360 N.am   15  LYS15      -0.1963
     24  CA        18.7810   43.6270   25.7550 C.3    15  LYS15       0.1728
     25  C         18.3550   45.0740   25.9790 C.2    15  LYS15       0.2617
     26  O         18.3320   45.8790   25.0450 O.2    15  LYS15      -0.2715
     27  CB        17.5400   42.7270   25.7370 C.3    15  LYS15       0.0311
     28  CG        17.8100   41.3090   25.2740 C.3    15  LYS15       0.0038
     29  CD        16.5300   40.4770   25.2060 C.3    15  LYS15       0.0206
     30  CE        16.1500   39.8690   26.5630 C.3    15  LYS15       0.1093
     31  NZ        15.8400   40.8640   27.6370 N.3    15  LYS15      -0.1314
     32  N         18.0120   45.4070   27.2160 N.am   16  SER16      -0.1936
     33  CA        17.5820   46.7600   27.5370 C.3    16  SER16       0.2055
     34  C         18.7340   47.7620   27.4850 C.2    16  SER16       0.2643
     35  O         18.5500   48.9110   27.0690 O.2    16  SER16      -0.2714
     36  CB        16.9250   46.7860   28.9150 C.3    16  SER16       0.2130
     37  OG        15.6730   47.4430   28.8410 O.3    16  SER16      -0.2179
     38  N         19.9170   47.3310   27.9110 N.am   17  SER17      -0.1949
     39  CA        21.0960   48.1920   27.8750 C.3    17  SER17       0.1924
     40  C         21.4100   48.4960   26.4190 C.2    17  SER17       0.2314
     41  O         21.7100   49.6410   26.0620 O.2    17  SER17      -0.2863
     42  CB        22.2960   47.4940   28.5120 C.3    17  SER17       0.2116
     43  OG        22.1360   47.3880   29.9160 O.3    17  SER17      -0.2180
     44  N          8.2580   42.1560   28.8690 N.3    38  ASP38      -0.1239
     45  CA         7.9490   41.7450   30.2370 C.3    38  ASP38       0.1674
     46  C          6.7180   42.4670   30.7540 C.2    38  ASP38       0.2266
     47  O          6.0970   42.0340   31.7160 O.2    38  ASP38      -0.2867
     48  CB         9.1130   42.0520   31.1720 C.3    38  ASP38       0.1410
     49  CG        10.1590   40.9650   31.1770 C.2    38  ASP38       0.3668
     50  OD1        9.9860   39.9460   30.4640 O.co2  38  ASP38      -0.2456
     51  OD2       11.1590   41.1340   31.9090 O.co2  38  ASP38      -0.2456
     52  N         11.7540   45.1110   23.2280 N.3   111  GLU111     -0.1245
     53  CA        12.7250   44.1500   23.7160 C.3   111  GLU111      0.1567
     54  C         12.1450   43.0960   24.6350 C.2   111  GLU111      0.2260
     55  O         11.3640   43.4120   25.5200 O.2   111  GLU111     -0.2867
     56  CB        13.8460   44.9230   24.4310 C.3   111  GLU111      0.0388
     57  CG        14.4720   44.2230   25.6210 C.3   111  GLU111      0.1160
     58  CD        13.6970   44.4330   26.9110 C.2   111  GLU111      0.3649
     59  OE1       13.6120   45.5920   27.3830 O.co2 111  GLU111     -0.2457
     60  OE2       13.1760   43.4340   27.4590 O.co2 111  GLU111     -0.2457
     61  N         12.5710   38.4630   25.8720 N.3   113  ILE113     -0.1245
     62  CA        13.2070   37.1680   25.6660 C.3   113  ILE113      0.1561
     63  C         12.5200   36.3240   24.6080 C.2   113  ILE113      0.2260
     64  O         13.0580   35.3020   24.2010 O.2   113  ILE113     -0.2867
     65  CB        13.2620   36.3190   26.9510 C.3   113  ILE113      0.0252
     66  CG1       11.8410   36.0110   27.4330 C.3   113  ILE113      0.0019
     67  CG2       14.1030   37.0220   28.0100 C.3   113  ILE113      0.0019
     68  CD1       11.7800   34.9360   28.5030 C.3   113  ILE113      0.0001
     69  N         24.0960   37.5950   36.4120 N.3   141  ARG141     -0.1245
     70  CA        23.3390   38.8340   36.4670 C.3   141  ARG141      0.1563
     71  C         21.9270   38.5200   36.9630 C.2   141  ARG141      0.2260
     72  O         21.3900   39.2250   37.8190 O.2   141  ARG141     -0.2867
     73  CB        23.2560   39.4750   35.0810 C.3   141  ARG141      0.0307
     74  CG        24.5710   39.9510   34.4790 C.3   141  ARG141      0.0489
     75  CD        24.3460   40.3120   33.0110 C.3   141  ARG141      0.2205
     76  NE        25.4860   40.9990   32.4250 N.pl3 141  ARG141     -0.0865
     77  CZ        25.6300   41.2420   31.1250 C.cat 141  ARG141      0.5346
     78  NH1       24.7010   40.8540   30.2570 N.pl3 141  ARG141      0.1354
     79  NH2       26.7150   41.8710   30.6860 N.pl3 141  ARG141      0.1354
     80  N         20.1350   40.2720   40.1900 N.3   145  ARG145     -0.1245
     81  CA        18.9560   41.1160   40.0170 C.3   145  ARG145      0.1563
     82  C         17.7300   40.5450   40.7190 C.2   145  ARG145      0.2260
     83  O         17.0440   41.2550   41.4410 O.2   145  ARG145     -0.2867
     84  CB        18.6120   41.3090   38.5430 C.3   145  ARG145      0.0307
     85  CG        17.4430   42.2540   38.3760 C.3   145  ARG145      0.0489
     86  CD        16.6210   41.9460   37.1550 C.3   145  ARG145      0.2205
     87  NE        16.1370   40.5650   37.1610 N.pl3 145  ARG145     -0.0865
     88  CZ        15.6310   39.9640   36.0890 C.cat 145  ARG145      0.5346
     89  NH1       15.5440   40.6360   34.9440 N.pl3 145  ARG145      0.1354
     90  NH2       15.2440   38.6940   36.1510 N.pl3 145  ARG145      0.1354
     91  N         13.6420   41.6090   42.5900 N.3   150  ARG150     -0.1245
     92  CA        12.4060   40.8280   42.6160 C.3   150  ARG150      0.1563
     93  C         12.2410   40.0360   43.9000 C.2   150  ARG150      0.2260
     94  O         11.4120   39.1320   43.9870 O.2   150  ARG150     -0.2867
     95  CB        12.3590   39.9140   41.3910 C.3   150  ARG150      0.0307
     96  CG        12.5480   40.7040   40.1040 C.3   150  ARG150      0.0489
     97  CD        12.4490   39.8650   38.8450 C.3   150  ARG150      0.2205
     98  NE        12.6300   40.7030   37.6650 N.pl3 150  ARG150     -0.0865
     99  CZ        12.4100   40.3010   36.4180 C.cat 150  ARG150      0.5346
    100  NH1       12.0010   39.0640   36.1730 N.pl3 150  ARG150      0.1354
    101  NH2       12.5920   41.1400   35.4100 N.pl3 150  ARG150      0.1354
@<TRIPOS>BOND
     1    52    53    1
     2    53    56    1
     3    53    54    1
     4    64    63    2
     5    56    57    1
     6    63    62    1
     7    54    55    2
     8    26    25    2
     9    29    28    1
    10    29    30    1
    11    28    27    1
    12    57    58    1
    13    62    61    1
    14    62    65    1
    15    27    24    1
    16    24    25    1
    17    24    23    1
    18    25    32   am
    19    41    40    2
    20    18    17    1
    21    22    21    2
    22    40    39    1
    23    30    31    1
    24    17    14    1
    25    23    21   am
    26    16    15    2
    27    58    59   ar
    28    58    60   ar
    29    21    20    1
    30    65    66    1
    31    65    67    1
    32    35    34    2
    33    32    33    1
    34    66    68    1
    35    34    33    1
    36    34    38   am
    37    33    36    1
    38    15    14    1
    39    15    19   am
    40    39    38    1
    41    39    42    1
    42    14    13    1
    43    20    19    1
    44    42    43    1
    45    37    36    1
    46    44    45    1
    47     1     2    1
    48    13    10   am
    49     2     3    1
    50     2     5    1
    51    45    46    1
    52    45    48    1
    53    78    77    1
    54    10    11    2
    55    10     9    1
    56    50    49   ar
    57     3     4    2
    58     3     8   am
    59    79    77    1
    60    46    47    2
    61     8     9    1
    62    77    76    2
    63    48    49    1
    64    49    51   ar
    65     5     7    1
    66     5     6    1
    67     9    12    1
    68    76    75    1
    69    75    74    1
    70    74    73    1
    71    89    88    1
    72    73    70    1
    73   101    99    1
    74    88    90    1
    75    88    87    2
    76   100    99    1
    77    69    70    1
    78    99    98    2
    79    70    71    1
    80    71    72    2
    81    86    87    1
    82    86    85    1
    83    98    97    1
    84    85    84    1
    85    84    81    1
    86    97    96    1
    87    81    80    1
    88    81    82    1
    89    96    95    1
    90    82    83    2
    91    95    92    1
    92    91    92    1
    93    92    93    1
    94    93    94    2
