@<TRIPOS>MOLECULE
tmp/1uf2A00.pdb
 178 171 0 0 0
SMALL
GASTEIGER

@<TRIPOS>ATOM
      1  N        176.4590 -204.1260  -29.4570 N.3   259  LEU259     -0.1231
      2  CA       175.2020 -204.3660  -28.7860 C.3   259  LEU259      0.1693
      3  C        173.9820 -203.9180  -29.5560 C.2   259  LEU259      0.2591
      4  O        172.9790 -204.6240  -29.5930 O.2   259  LEU259     -0.2718
      5  CB       175.2280 -203.6980  -27.4250 C.3   259  LEU259      0.0284
      6  CG       176.1440 -204.4750  -26.4900 C.3   259  LEU259      0.0019
      7  CD1      176.5890 -203.5770  -25.3750 C.3   259  LEU259      0.0001
      8  CD2      175.4210 -205.7070  -25.9620 C.3   259  LEU259      0.0001
      9  N        174.0530 -202.7450  -30.1660 N.am  260  ARG260     -0.1980
     10  CA       172.9170 -202.2400  -30.9220 C.3   260  ARG260      0.1597
     11  C        172.4470 -203.2280  -31.9840 C.2   260  ARG260      0.2287
     12  O        171.2490 -203.3570  -32.2350 O.2   260  ARG260     -0.2864
     13  CB       173.2660 -200.9080  -31.5960 C.3   260  ARG260      0.0334
     14  CG       173.4670 -199.7510  -30.6300 C.3   260  ARG260      0.0492
     15  CD       173.7860 -198.4340  -31.3510 C.3   260  ARG260      0.2205
     16  NE       173.9880 -197.3400  -30.3930 N.pl3 260  ARG260     -0.0865
     17  CZ       174.1940 -196.0620  -30.7210 C.cat 260  ARG260      0.5346
     18  NH1      174.2270 -195.6980  -32.0010 N.pl3 260  ARG260      0.1354
     19  NH2      174.3620 -195.1430  -29.7650 N.pl3 260  ARG260      0.1354
     20  N        172.5920 -206.6250  -32.0340 N.3   262  ILE262     -0.1231
     21  CA       172.0030 -207.8780  -31.6030 C.3   262  ILE262      0.1692
     22  C        170.5110 -207.9690  -31.7590 C.2   262  ILE262      0.2593
     23  O        169.7730 -207.1250  -31.2590 O.2   262  ILE262     -0.2718
     24  CB       172.3410 -208.1820  -30.1600 C.3   262  ILE262      0.0266
     25  CG1      173.8280 -208.4920  -30.0430 C.3   262  ILE262      0.0019
     26  CG2      171.5510 -209.3670  -29.7000 C.3   262  ILE262      0.0020
     27  CD1      174.2660 -208.8980  -28.6700 C.3   262  ILE262      0.0001
     28  N        170.0750 -209.0170  -32.4480 N.am  263  SER263     -0.1938
     29  CA       168.6550 -209.2520  -32.6700 C.3   263  SER263      0.2055
     30  C        168.3480 -210.7450  -32.7580 C.2   263  SER263      0.2643
     31  O        168.7500 -211.4120  -33.7060 O.2   263  SER263     -0.2714
     32  CB       168.2000 -208.5660  -33.9580 C.3   263  SER263      0.2130
     33  OG       166.7920 -208.6620  -34.1080 O.3   263  SER263     -0.2179
     34  N        167.6310 -211.2700  -31.7750 N.am  264  LEU264     -0.1963
     35  CA       167.2920 -212.6770  -31.7880 C.3   264  LEU264      0.1728
     36  C        165.8080 -212.8380  -32.0240 C.2   264  LEU264      0.2616
     37  O        165.0070 -212.0160  -31.5840 O.2   264  LEU264     -0.2715
     38  CB       167.6720 -213.3040  -30.4630 C.3   264  LEU264      0.0311
     39  CG       169.1550 -213.1730  -30.1790 C.3   264  LEU264      0.0022
     40  CD1      169.4570 -213.6520  -28.7810 C.3   264  LEU264      0.0001
     41  CD2      169.9220 -213.9730  -31.1990 C.3   264  LEU264      0.0001
     42  N        165.4330 -213.8970  -32.7250 N.am  265  HIS265     -0.1959
     43  CA       164.0250 -214.1320  -32.9900 C.3   265  HIS265      0.1787
     44  C        163.6470 -215.5070  -32.4680 C.2   265  HIS265      0.2620
     45  O        163.9360 -216.5070  -33.1130 O.2   265  HIS265     -0.2715
     46  CB       163.7630 -214.0580  -34.4890 C.3   265  HIS265      0.0785
     47  CG       162.3130 -214.1260  -34.8510 C.ar  265  HIS265      0.0821
     48  ND1      161.4260 -213.1100  -34.5560 N.ar  265  HIS265     -0.2267
     49  CD2      161.5920 -215.0900  -35.4750 C.ar  265  HIS265      0.1154
     50  CE1      160.2200 -213.4470  -34.9840 C.ar  265  HIS265      0.1986
     51  NE2      160.2930 -214.6430  -35.5450 N.ar  265  HIS265     -0.2212
     52  N        163.0040 -215.5600  -31.3070 N.am  266  LEU266     -0.1963
     53  CA       162.6090 -216.8350  -30.7190 C.3   266  LEU266      0.1728
     54  C        161.1080 -217.0150  -30.6610 C.2   266  LEU266      0.2616
     55  O        160.3730 -216.0380  -30.5810 O.2   266  LEU266     -0.2715
     56  CB       163.1340 -216.9500  -29.2930 C.3   266  LEU266      0.0311
     57  CG       164.6120 -217.2260  -29.0370 C.3   266  LEU266      0.0022
     58  CD1      164.8410 -217.2970  -27.5470 C.3   266  LEU266      0.0001
     59  CD2      165.0320 -218.5340  -29.6860 C.3   266  LEU266      0.0001
     60  N        160.6570 -218.2680  -30.6890 N.am  267  VAL267     -0.1963
     61  CA       159.2290 -218.5830  -30.5780 C.3   267  VAL267      0.1727
     62  C        159.0560 -219.5190  -29.4050 C.2   267  VAL267      0.2616
     63  O        159.7480 -220.5300  -29.3150 O.2   267  VAL267     -0.2715
     64  CB       158.6930 -219.3110  -31.7910 C.3   267  VAL267      0.0290
     65  CG1      158.1270 -218.3180  -32.7630 C.3   267  VAL267      0.0023
     66  CG2      159.7960 -220.1350  -32.4170 C.3   267  VAL267      0.0023
     67  N        158.1370 -219.2010  -28.5060 N.am  268  MET268     -0.1963
     68  CA       157.9340 -220.0590  -27.3500 C.3   268  MET268      0.1736
     69  C        156.4710 -220.3200  -27.0990 C.2   268  MET268      0.2616
     70  O        155.6180 -219.5350  -27.5060 O.2   268  MET268     -0.2715
     71  CB       158.5390 -219.4190  -26.1120 C.3   268  MET268      0.0427
     72  CG       160.0300 -219.2490  -26.1890 C.3   268  MET268      0.0599
     73  SD       160.5250 -217.8880  -25.1480 S.3   268  MET268     -0.1393
     74  CE       159.4260 -216.6300  -25.7440 C.3   268  MET268      0.0692
     75  N        156.1790 -221.4240  -26.4250 N.am  269  GLN269     -0.1963
     76  CA       154.8030 -221.7510  -26.1230 C.3   269  GLN269      0.1733
     77  C        154.2480 -220.7760  -25.1140 C.2   269  GLN269      0.2616
     78  O        154.9570 -219.8980  -24.6340 O.2   269  GLN269     -0.2715
     79  CB       154.7090 -223.1540  -25.5750 C.3   269  GLN269      0.0408
     80  CG       154.7200 -224.1880  -26.6390 C.3   269  GLN269      0.0908
     81  CD       154.9620 -225.5500  -26.0710 C.2   269  GLN269      0.2608
     82  OE1      156.0980 -225.9150  -25.7540 O.2   269  GLN269     -0.2717
     83  NE2      153.8910 -226.3160  -25.9160 N.am  269  GLN269     -0.0878
     84  N        152.9680 -220.9280  -24.8040 N.am  270  MET270     -0.1963
     85  CA       152.3070 -220.0600  -23.8410 C.3   270  MET270      0.1736
     86  C        152.8330 -220.3840  -22.4560 C.2   270  MET270      0.2616
     87  O        152.9210 -221.5530  -22.0810 O.2   270  MET270     -0.2715
     88  CB       150.7960 -220.2880  -23.8780 C.3   270  MET270      0.0427
     89  CG       150.1160 -219.7000  -25.0830 C.3   270  MET270      0.0599
     90  SD       150.1330 -217.9210  -24.9470 S.3   270  MET270     -0.1393
     91  CE       148.4230 -217.6470  -24.4930 C.3   270  MET270      0.0692
     92  N        153.1850 -219.3560  -21.6940 N.am  271  VAL271     -0.1977
     93  CA       153.6980 -219.5750  -20.3480 C.3   271  VAL271      0.1596
     94  C        152.7550 -220.5620  -19.6620 C.2   271  VAL271      0.2287
     95  O        153.1870 -221.4980  -18.9970 O.2   271  VAL271     -0.2864
     96  CB       153.7360 -218.2520  -19.5420 C.3   271  VAL271      0.0276
     97  CG1      155.0380 -218.1670  -18.7640 C.3   271  VAL271      0.0022
     98  CG2      153.5770 -217.0420  -20.4840 C.3   271  VAL271      0.0022
     99  N        158.8940 -215.3690  -19.1480 N.3   301  VAL301     -0.1231
    100  CA       159.4240 -215.2460  -20.4950 C.3   301  VAL301      0.1692
    101  C        160.5580 -214.2450  -20.5530 C.2   301  VAL301      0.2591
    102  O        161.5830 -214.4940  -21.1880 O.2   301  VAL301     -0.2718
    103  CB       158.3420 -214.7840  -21.4630 C.3   301  VAL301      0.0266
    104  CG1      158.7470 -215.1170  -22.8830 C.3   301  VAL301      0.0020
    105  CG2      157.0150 -215.4190  -21.0910 C.3   301  VAL301      0.0020
    106  N        160.3680 -213.1070  -19.8920 N.am  302  GLN302     -0.1979
    107  CA       161.3810 -212.0630  -19.8840 C.3   302  GLN302      0.1601
    108  C        162.7570 -212.6470  -19.5710 C.2   302  GLN302      0.2287
    109  O        163.7570 -212.2600  -20.1720 O.2   302  GLN302     -0.2864
    110  CB       161.0150 -210.9610  -18.8710 C.3   302  GLN302      0.0394
    111  CG       161.9960 -209.7650  -18.8680 C.3   302  GLN302      0.0908
    112  CD       161.4380 -208.4720  -18.2290 C.2   302  GLN302      0.2608
    113  OE1      161.0690 -208.4450  -17.0400 O.2   302  GLN302     -0.2717
    114  NE2      161.3880 -207.3890  -19.0270 N.am  302  GLN302     -0.0878
    115  N        164.0610 -215.5530  -20.2870 N.3   304  VAL304     -0.1231
    116  CA       164.6330 -216.1660  -21.4700 C.3   304  VAL304      0.1692
    117  C        165.1500 -215.1030  -22.4060 C.2   304  VAL304      0.2591
    118  O        166.2110 -215.2580  -22.9950 O.2   304  VAL304     -0.2718
    119  CB       163.6110 -217.0170  -22.2170 C.3   304  VAL304      0.0266
    120  CG1      164.1140 -217.3220  -23.6070 C.3   304  VAL304      0.0020
    121  CG2      163.3800 -218.3110  -21.4660 C.3   304  VAL304      0.0020
    122  N        164.4020 -214.0210  -22.5630 N.am  305  GLN305     -0.1979
    123  CA       164.8700 -212.9580  -23.4320 C.3   305  GLN305      0.1601
    124  C        166.2740 -212.5610  -22.9890 C.2   305  GLN305      0.2287
    125  O        167.2600 -212.8090  -23.6920 O.2   305  GLN305     -0.2864
    126  CB       163.9330 -211.7480  -23.3650 C.3   305  GLN305      0.0394
    127  CG       162.5770 -211.9710  -24.0530 C.3   305  GLN305      0.0908
    128  CD       161.7550 -210.6800  -24.2120 C.2   305  GLN305      0.2608
    129  OE1      162.2390 -209.6700  -24.7540 O.2   305  GLN305     -0.2717
    130  NE2      160.5060 -210.7150  -23.7480 N.am  305  GLN305     -0.0878
    131  N        169.0870 -215.1590  -23.4150 N.3   308  ALA308     -0.1231
    132  CA       169.4970 -215.3780  -24.7910 C.3   308  ALA308      0.1694
    133  C        170.3580 -214.2440  -25.2840 C.2   308  ALA308      0.2591
    134  O        171.4810 -214.4740  -25.7240 O.2   308  ALA308     -0.2718
    135  CB       168.2880 -215.5300  -25.6790 C.3   308  ALA308      0.0304
    136  N        169.8390 -213.0210  -25.2120 N.am  309  VAL309     -0.1980
    137  CA       170.6040 -211.8630  -25.6660 C.3   309  VAL309      0.1595
    138  C        172.0180 -211.8900  -25.0810 C.2   309  VAL309      0.2287
    139  O        172.9860 -211.5760  -25.7650 O.2   309  VAL309     -0.2864
    140  CB       169.9320 -210.5290  -25.2750 C.3   309  VAL309      0.0276
    141  CG1      169.8840 -210.3900  -23.7830 C.3   309  VAL309      0.0022
    142  CG2      170.7190 -209.3650  -25.8320 C.3   309  VAL309      0.0022
    143  N        175.6300 -211.7990  -27.1840 N.3   313  GLN313     -0.1245
    144  CA       176.7570 -210.8670  -27.1510 C.3   313  GLN313      0.1566
    145  C        177.9960 -211.5310  -26.6190 C.2   313  GLN313      0.2260
    146  O        179.0770 -211.4100  -27.1860 O.2   313  GLN313     -0.2867
    147  CB       176.4490 -209.6420  -26.2960 C.3   313  GLN313      0.0367
    148  CG       175.7720 -209.9340  -24.9860 C.3   313  GLN313      0.0905
    149  CD       175.6800 -208.7000  -24.1170 C.2   313  GLN313      0.2608
    150  OE1      176.6820 -208.2650  -23.5580 O.2   313  GLN313     -0.2717
    151  NE2      174.4770 -208.1160  -24.0100 N.am  313  GLN313     -0.0878
    152  N        162.4500 -222.0310  -18.1810 N.3   594  PHE594     -0.1241
    153  CA       161.3570 -221.9180  -19.1260 C.3   594  PHE594      0.1605
    154  C        161.8480 -222.0380  -20.5480 C.2   594  PHE594      0.2264
    155  O        161.1050 -222.4300  -21.4420 O.2   594  PHE594     -0.2867
    156  CB       160.6620 -220.5890  -18.9910 C.3   594  PHE594      0.0534
    157  CG       159.5830 -220.3880  -20.0010 C.ar  594  PHE594     -0.0203
    158  CD1      158.5550 -221.3040  -20.1180 C.ar  594  PHE594     -0.0042
    159  CD2      159.5650 -219.2630  -20.8050 C.ar  594  PHE594     -0.0042
    160  CE1      157.5170 -221.1000  -21.0180 C.ar  594  PHE594     -0.0003
    161  CE2      158.5300 -219.0490  -21.7100 C.ar  594  PHE594     -0.0003
    162  CZ       157.5040 -219.9700  -21.8130 C.ar  594  PHE594     -0.0000
    163  N        160.5650 -223.2090  -28.8780 N.3   600  VAL600     -0.1245
    164  CA       160.1630 -224.1300  -29.9290 C.3   600  VAL600      0.1561
    165  C        161.0600 -223.9330  -31.1210 C.2   600  VAL600      0.2260
    166  O        161.0210 -222.9020  -31.7770 O.2   600  VAL600     -0.2867
    167  CB       158.7450 -223.8620  -30.4120 C.3   600  VAL600      0.0252
    168  CG1      158.4540 -224.7300  -31.6220 C.3   600  VAL600      0.0019
    169  CG2      157.7570 -224.1290  -29.2990 C.3   600  VAL600      0.0019
    170  N        162.2270 -223.7910  -34.7760 N.3   602  GLN602     -0.1245
    171  CA       161.5740 -223.7610  -36.0850 C.3   602  GLN602      0.1566
    172  C        162.7190 -224.5530  -36.6710 C.2   602  GLN602      0.2260
    173  O        163.8510 -224.2760  -36.3070 O.2   602  GLN602     -0.2867
    174  CB       161.5530 -222.3400  -36.6390 C.3   602  GLN602      0.0367
    175  CG       160.7910 -221.3880  -35.7540 C.3   602  GLN602      0.0905
    176  CD       159.3910 -221.8900  -35.4890 C.2   602  GLN602      0.2608
    177  OE1      158.5370 -221.8910  -36.3830 O.2   602  GLN602     -0.2717
    178  NE2      159.1470 -222.3460  -34.2630 N.am  602  GLN602     -0.0878
@<TRIPOS>BOND
     1   172   173    2
     2   172   171    1
     3   174   171    1
     4   174   175    1
     5   177   176    2
     6   171   170    1
     7   175   176    1
     8    51    49   ar
     9    51    50   ar
    10   176   178   am
    11    49    47   ar
    12    50    48   ar
    13    47    48   ar
    14    47    46    1
    15    46    43    1
    16    33    32    1
    17    32    29    1
    18    31    30    2
    19    45    44    2
    20    43    42    1
    21    43    44    1
    22    65    64    1
    23    30    29    1
    24    30    34   am
    25    42    36   am
    26    29    28    1
    27    44    52   am
    28    28    22   am
    29    66    64    1
    30    12    11    2
    31    20    21    1
    32    36    35    1
    33    36    37    2
    34    18    17    1
    35    11    10    1
    36    64    61    1
    37    35    34    1
    38    35    38    1
    39   166   165    2
    40    22    21    1
    41    22    23    2
    42   168   167    1
    43    21    24    1
    44    13    10    1
    45    13    14    1
    46    15    14    1
    47    15    16    1
    48    52    53    1
    49    41    39    1
    50   165   164    1
    51    10     9    1
    52    17    16    2
    53    17    19    1
    54    53    54    1
    55    53    56    1
    56    60    54   am
    57    60    61    1
    58    54    55    2
    59    61    62    1
    60    38    39    1
    61   167   164    1
    62   167   169    1
    63    39    40    1
    64     9     3   am
    65    24    25    1
    66    24    26    1
    67    25    27    1
    68   164   163    1
    69    59    57    1
    70     4     3    2
    71     3     2    1
    72     1     2    1
    73    62    63    2
    74    62    67   am
    75    56    57    1
    76    57    58    1
    77     2     5    1
    78    67    68    1
    79    70    69    2
    80     5     6    1
    81    68    69    1
    82    68    71    1
    83   146   145    2
    84   143   144    1
    85   144   145    1
    86   144   147    1
    87    69    75   am
    88    80    81    1
    89    80    79    1
    90     6     8    1
    91     6     7    1
    92    75    76    1
    93   147   148    1
    94    72    71    1
    95    72    73    1
    96    76    79    1
    97    76    77    1
    98    81    83   am
    99    81    82    2
   100   142   140    1
   101   139   138    2
   102    74    73    1
   103   134   133    2
   104   135   132    1
   105   137   140    1
   106   137   136    1
   107   137   138    1
   108   133   136   am
   109   133   132    1
   110   140   141    1
   111    77    84   am
   112    77    78    2
   113    89    90    1
   114    89    88    1
   115   148   149    1
   116    90    91    1
   117    84    85    1
   118   132   131    1
   119   129   128    2
   120   128   127    1
   121   128   130   am
   122   149   151   am
   123   149   150    2
   124   127   126    1
   125    88    85    1
   126    85    86    1
   127   125   124    2
   128   120   119    1
   129   123   126    1
   130   123   124    1
   131   123   122    1
   132   118   117    2
   133   104   103    1
   134   122   117   am
   135    86    87    2
   136    86    92   am
   137   117   116    1
   138   119   116    1
   139   119   121    1
   140   162   161   ar
   141   162   160   ar
   142   161   159   ar
   143    92    93    1
   144   116   115    1
   145   103   105    1
   146   103   100    1
   147   155   154    2
   148   102   101    2
   149   160   158   ar
   150   159   157   ar
   151   101   100    1
   152   101   106   am
   153   154   153    1
   154   100    99    1
   155    98    96    1
   156    93    94    1
   157    93    96    1
   158   109   108    2
   159   158   157   ar
   160   157   156    1
   161   106   107    1
   162   107   108    1
   163   107   110    1
   164    94    95    2
   165    96    97    1
   166   153   156    1
   167   153   152    1
   168   114   112   am
   169   110   111    1
   170   111   112    1
   171   112   113    2
