@<TRIPOS>MOLECULE
tmp/1uf5A00.pdb
 135 128 0 0 0
SMALL
GASTEIGER

@<TRIPOS>ATOM
      1  N         50.5660   79.2510  -11.6960 N.3    46  GLU46      -0.1245
      2  CA        51.4430   80.3660  -11.3690 C.3    46  GLU46       0.1567
      3  C         52.8210   79.9260  -11.8810 C.2    46  GLU46       0.2260
      4  O         53.1730   78.7500  -11.7640 O.2    46  GLU46      -0.2867
      5  CB        51.4840   80.5370   -9.8460 C.3    46  GLU46       0.0388
      6  CG        52.7500   81.1780   -9.3050 C.3    46  GLU46       0.1160
      7  CD        52.9030   80.9690   -7.8100 C.2    46  GLU46       0.3649
      8  OE1       52.7270   79.8190   -7.3530 O.co2  46  GLU46      -0.2457
      9  OE2       53.2080   81.9420   -7.0900 O.co2  46  GLU46      -0.2457
     10  N         59.4910   75.8100  -10.0110 N.3    52  PHE52      -0.1241
     11  CA        59.2710   76.8470   -9.0010 C.3    52  PHE52       0.1605
     12  C         60.6080   77.2040   -8.3450 C.2    52  PHE52       0.2264
     13  O         60.9160   76.7530   -7.2400 O.2    52  PHE52      -0.2867
     14  CB        58.2720   76.3640   -7.9440 C.3    52  PHE52       0.0534
     15  CG        57.7650   77.4580   -7.0460 C.ar   52  PHE52      -0.0203
     16  CD1       56.9320   78.4570   -7.5480 C.ar   52  PHE52      -0.0042
     17  CD2       58.1220   77.4970   -5.7020 C.ar   52  PHE52      -0.0042
     18  CE1       56.4620   79.4770   -6.7240 C.ar   52  PHE52      -0.0003
     19  CE2       57.6590   78.5130   -4.8700 C.ar   52  PHE52      -0.0003
     20  CZ        56.8260   79.5060   -5.3850 C.ar   52  PHE52      -0.0000
     21  N         51.5020   89.6550   -8.5520 N.3   126  LYS126     -0.1245
     22  CA        51.3020   89.1490   -7.1930 C.3   126  LYS126      0.1561
     23  C         51.6010   90.1690   -6.1020 C.2   126  LYS126      0.2260
     24  O         52.7280   90.6390   -5.9680 O.2   126  LYS126     -0.2867
     25  CB        52.1570   87.8990   -6.9840 C.3   126  LYS126      0.0271
     26  CG        51.7390   87.0270   -5.8030 C.3   126  LYS126      0.0035
     27  CD        52.5600   85.7480   -5.8040 C.3   126  LYS126      0.0206
     28  CE        52.1590   84.7890   -4.6940 C.3   126  LYS126      0.1093
     29  NZ        53.0300   83.5730   -4.7410 N.3   126  LYS126     -0.1314
     30  N         54.4900   85.3650   -0.1140 N.3   130  PRO130     -0.2102
     31  CA        54.6640   84.5440    1.0850 C.3   130  PRO130      0.1504
     32  C         56.1050   84.1070    1.3100 C.2   130  PRO130      0.2576
     33  O         57.0030   84.4560    0.5430 O.2   130  PRO130     -0.2718
     34  CB        53.7610   83.3600    0.7970 C.3   130  PRO130      0.0282
     35  CG        54.0570   83.1190   -0.6630 C.3   130  PRO130      0.0208
     36  CD        54.0730   84.5320   -1.2600 C.3   130  PRO130      0.0893
     37  N         56.3130   83.3380    2.3740 N.am  131  GLY131     -0.1957
     38  CA        57.6400   82.8360    2.6710 C.3   131  GLY131      0.1869
     39  C         58.4760   83.6770    3.6100 C.2   131  GLY131      0.2309
     40  O         57.9570   84.4350    4.4290 O.2   131  GLY131     -0.2863
     41  N         65.5180   74.3610    6.5550 N.3   139  ARG139     -0.1245
     42  CA        64.5240   74.0090    5.5420 C.3   139  ARG139      0.1563
     43  C         64.9930   73.0680    4.4360 C.2   139  ARG139      0.2260
     44  O         66.0720   73.2480    3.8700 O.2   139  ARG139     -0.2867
     45  CB        63.9790   75.2740    4.8750 C.3   139  ARG139      0.0307
     46  CG        63.3950   76.2980    5.8210 C.3   139  ARG139      0.0489
     47  CD        62.5650   77.2980    5.0490 C.3   139  ARG139      0.2205
     48  NE        61.9390   78.2850    5.9180 N.pl3 139  ARG139     -0.0865
     49  CZ        60.7180   78.7720    5.7280 C.cat 139  ARG139      0.5346
     50  NH1       60.2270   79.6730    6.5680 N.pl3 139  ARG139      0.1354
     51  NH2       59.9820   78.3470    4.7080 N.pl3 139  ARG139      0.1354
     52  N         61.6130   79.2500    0.3740 N.3   143  HIS143     -0.1241
     53  CA        60.4630   79.8970   -0.2450 C.3   143  HIS143      0.1621
     54  C         60.8000   81.3750   -0.1650 C.2   143  HIS143      0.2264
     55  O         60.2790   82.1120    0.6750 O.2   143  HIS143     -0.2867
     56  CB        59.1580   79.6120    0.4940 C.3   143  HIS143      0.0745
     57  CG        57.9520   79.8350   -0.3610 C.ar  143  HIS143      0.0817
     58  ND1       57.2380   78.8010   -0.9280 N.ar  143  HIS143     -0.2268
     59  CD2       57.4040   80.9770   -0.8400 C.ar  143  HIS143      0.1154
     60  CE1       56.3060   79.2960   -1.7220 C.ar  143  HIS143      0.1986
     61  NE2       56.3860   80.6140   -1.6880 N.ar  143  HIS143     -0.2212
     62  N         60.2490   84.0930   -2.2300 N.3   145  GLU145     -0.1245
     63  CA        59.5770   84.9940   -3.1620 C.3   145  GLU145      0.1567
     64  C         59.7820   86.4670   -2.8220 C.2   145  GLU145      0.2260
     65  O         59.8230   87.3120   -3.7130 O.2   145  GLU145     -0.2867
     66  CB        58.0760   84.7150   -3.2010 C.3   145  GLU145      0.0388
     67  CG        57.6900   83.3920   -3.8240 C.3   145  GLU145      0.1160
     68  CD        56.2050   83.3310   -4.1170 C.2   145  GLU145      0.3649
     69  OE1       55.7190   84.1960   -4.8760 O.co2 145  GLU145     -0.2457
     70  OE2       55.5210   82.4290   -3.5900 O.co2 145  GLU145     -0.2457
     71  N         48.4340   82.4200   -6.5660 N.3   171  ALA171     -0.1231
     72  CA        48.7450   81.5720   -5.4250 C.3   171  ALA171      0.1694
     73  C         48.3150   82.0890   -4.0510 C.2   171  ALA171      0.2592
     74  O         47.1220   82.1460   -3.7480 O.2   171  ALA171     -0.2718
     75  CB        50.2420   81.2640   -5.4320 C.3   171  ALA171      0.0304
     76  N         49.2950   82.4510   -3.2220 N.am  172  ASN172     -0.1974
     77  CA        49.0370   82.9380   -1.8690 C.3   172  ASN172      0.1688
     78  C         47.9030   83.9610   -1.7990 C.2   172  ASN172      0.2292
     79  O         47.1760   84.0040   -0.8110 O.2   172  ASN172     -0.2864
     80  CB        50.3290   83.5230   -1.2710 C.3   172  ASN172      0.1181
     81  CG        50.1900   83.8960    0.2030 C.2   172  ASN172      0.2629
     82  OD1       50.0190   85.0660    0.5490 O.2   172  ASN172     -0.2716
     83  ND2       50.2670   82.8950    1.0800 N.am  172  ASN172     -0.0877
     84  N         45.0440   83.9790   -2.9440 N.3   174  ARG174     -0.1231
     85  CA        43.7400   83.3680   -2.7200 C.3   174  ARG174      0.1694
     86  C         43.3460   83.2070   -1.2630 C.2   174  ARG174      0.2591
     87  O         42.1710   82.9990   -0.9590 O.2   174  ARG174     -0.2718
     88  CB        43.6530   82.0100   -3.4370 C.3   174  ARG174      0.0321
     89  CG        44.4960   80.8690   -2.8440 C.3   174  ARG174      0.0489
     90  CD        44.6060   79.7590   -3.8850 C.3   174  ARG174      0.2205
     91  NE        45.1600   78.4820   -3.4240 N.pl3 174  ARG174     -0.0865
     92  CZ        46.4140   78.2780   -3.0310 C.cat 174  ARG174      0.5346
     93  NH1       47.2920   79.2730   -3.0080 N.pl3 174  ARG174      0.1354
     94  NH2       46.8070   77.0450   -2.7220 N.pl3 174  ARG174      0.1354
     95  N         44.3180   83.3280   -0.3650 N.am  175  ARG175     -0.1980
     96  CA        44.0690   83.1790    1.0670 C.3   175  ARG175      0.1597
     97  C         43.7030   84.4920    1.7510 C.2   175  ARG175      0.2287
     98  O         43.3360   84.4970    2.9240 O.2   175  ARG175     -0.2864
     99  CB        45.3080   82.5970    1.7560 C.3   175  ARG175      0.0334
    100  CG        45.8190   81.3050    1.1440 C.3   175  ARG175      0.0492
    101  CD        47.0450   80.7820    1.8880 C.3   175  ARG175      0.2205
    102  NE        47.6980   79.7130    1.1370 N.pl3 175  ARG175     -0.0865
    103  CZ        47.3040   78.4420    1.1250 C.cat 175  ARG175      0.5346
    104  NH1       46.2580   78.0490    1.8400 N.pl3 175  ARG175      0.1354
    105  NH2       47.9420   77.5670    0.3590 N.pl3 175  ARG175      0.1354
    106  N         51.5560   77.1980   -6.6520 N.3   196  ASN196     -0.1225
    107  CA        52.6270   76.2400   -6.3950 C.3   196  ASN196      0.1785
    108  C         52.6110   76.1930   -4.8750 C.2   196  ASN196      0.2598
    109  O         53.1980   77.0470   -4.2080 O.2   196  ASN196     -0.2718
    110  CB        53.9720   76.7660   -6.8950 C.3   196  ASN196      0.1169
    111  CG        54.1150   76.6550   -8.3970 C.2   196  ASN196      0.2627
    112  OD1       54.5510   75.6240   -8.9190 O.2   196  ASN196     -0.2716
    113  ND2       53.7330   77.7100   -9.1050 N.am  196  ASN196     -0.0877
    114  N         51.9140   75.1990   -4.3340 N.am  197  THR197     -0.1939
    115  CA        51.7650   75.0560   -2.8930 C.3   197  THR197      0.2013
    116  C         52.3330   73.7500   -2.3560 C.2   197  THR197      0.2484
    117  O         51.7240   72.6940   -2.5030 O.2   197  THR197     -0.2729
    118  CB        50.2740   75.1410   -2.5070 C.3   197  THR197      0.1807
    119  OG1       49.7250   76.3690   -3.0060 O.3   197  THR197     -0.2208
    120  CG2       50.0960   75.0720   -0.9940 C.3   197  THR197      0.0379
    121  N         53.5180   73.8080   -1.7320 N.am  198  PRO198     -0.2726
    122  CA        54.1190   72.5870   -1.1850 C.3   198  PRO198      0.1402
    123  C         53.1930   71.9880   -0.1340 C.2   198  PRO198      0.2269
    124  O         52.5350   72.7260    0.6040 O.2   198  PRO198     -0.2865
    125  CB        55.4210   73.0920   -0.5720 C.3   198  PRO198      0.0296
    126  CG        55.7970   74.2260   -1.4800 C.3   198  PRO198      0.0237
    127  CD        54.4690   74.9350   -1.6820 C.3   198  PRO198      0.0939
    128  N         55.2130   72.5260    5.0100 N.3   201  ASN201     -0.1240
    129  CA        55.6090   73.8920    5.3350 C.3   201  ASN201      0.1653
    130  C         56.5570   73.8020    6.5210 C.2   201  ASN201      0.2266
    131  O         56.1270   73.5920    7.6540 O.2   201  ASN201     -0.2867
    132  CB        54.4080   74.7520    5.7060 C.3   201  ASN201      0.1155
    133  CG        54.8110   76.1630    6.0700 C.2   201  ASN201      0.2627
    134  OD1       55.4690   76.8510    5.2870 O.2   201  ASN201     -0.2716
    135  ND2       54.4320   76.6000    7.2660 N.am  201  ASN201     -0.0877
@<TRIPOS>BOND
     1     3     4    2
     2     3     2    1
     3     1     2    1
     4     2     5    1
     5    10    11    1
     6     5     6    1
     7     6     7    1
     8   113   111   am
     9    11    12    1
    10    11    14    1
    11   112   111    2
    12    21    22    1
    13   111   110    1
    14    12    13    2
    15    14    15    1
    16     7     8   ar
    17     7     9   ar
    18    16    15   ar
    19    16    18   ar
    20    22    25    1
    21    22    23    1
    22    15    17   ar
    23    25    26    1
    24   110   107    1
    25    18    20   ar
    26   106   107    1
    27    71    72    1
    28   107   108    1
    29    23    24    2
    30    27    26    1
    31    27    28    1
    32    17    19   ar
    33    75    72    1
    34    72    73    1
    35    20    19   ar
    36    69    68   ar
    37   108   114   am
    38   108   109    2
    39    29    28    1
    40   114   115    1
    41    68    67    1
    42    68    70   ar
    43    73    74    2
    44    73    76   am
    45    90    91    1
    46    90    89    1
    47    67    66    1
    48    65    64    2
    49    88    89    1
    50    88    85    1
    51    91    92    2
    52    76    77    1
    53    66    63    1
    54    63    64    1
    55    63    62    1
    56    92    93    1
    57    92    94    1
    58   119   118    1
    59    84    85    1
    60   115   118    1
    61   115   116    1
    62    85    86    1
    63   118   120    1
    64   117   116    2
    65   116   121   am
    66    77    78    1
    67    77    80    1
    68    78    79    2
    69   121   127    1
    70   121   122    1
    71    60    61   ar
    72    60    58   ar
    73    61    59   ar
    74   127   126    1
    75   126   125    1
    76    80    81    1
    77    86    87    2
    78    86    95   am
    79    36    35    1
    80    36    30    1
    81   122   125    1
    82   122   123    1
    83    58    57   ar
    84    59    57   ar
    85    35    34    1
    86    95    96    1
    87    57    56    1
    88    53    54    1
    89    53    52    1
    90    53    56    1
    91    54    55    2
    92   123   124    2
    93    30    31    1
    94    81    82    2
    95    81    83   am
    96   105   103    1
    97    33    32    2
    98    34    31    1
    99    96    97    1
   100    96    99    1
   101    31    32    1
   102   103   102    2
   103   103   104    1
   104   102   101    1
   105   100    99    1
   106   100   101    1
   107    32    37   am
   108    97    98    2
   109    37    38    1
   110    38    39    1
   111    39    40    2
   112    44    43    2
   113    43    42    1
   114    51    49    1
   115    45    42    1
   116    45    46    1
   117   128   129    1
   118    47    46    1
   119    47    48    1
   120   134   133    2
   121   129   132    1
   122   129   130    1
   123    42    41    1
   124   132   133    1
   125    49    48    2
   126    49    50    1
   127   133   135   am
   128   130   131    2
