@<TRIPOS>MOLECULE
tmp/1uf7A00.pdb
 124 118 0 0 0
SMALL
GASTEIGER

@<TRIPOS>ATOM
      1  N         50.6450   79.4380  -11.6970 N.3    46  GLU46      -0.1245
      2  CA        51.5210   80.5630  -11.3850 C.3    46  GLU46       0.1567
      3  C         52.8740   80.1020  -11.9250 C.2    46  GLU46       0.2260
      4  O         53.1780   78.9120  -11.8550 O.2    46  GLU46      -0.2867
      5  CB        51.5920   80.7400   -9.8650 C.3    46  GLU46       0.0388
      6  CG        52.8650   81.3750   -9.3190 C.3    46  GLU46       0.1160
      7  CD        52.9950   81.1760   -7.8130 C.2    46  GLU46       0.3649
      8  OE1       52.8620   80.0200   -7.3640 O.co2  46  GLU46      -0.2457
      9  OE2       53.2350   82.1590   -7.0790 O.co2  46  GLU46      -0.2457
     10  N         59.5790   75.9310  -10.1120 N.3    52  PHE52      -0.1241
     11  CA        59.3670   76.9640   -9.1040 C.3    52  PHE52       0.1605
     12  C         60.7160   77.3210   -8.4760 C.2    52  PHE52       0.2264
     13  O         61.0380   76.8670   -7.3770 O.2    52  PHE52      -0.2867
     14  CB        58.3980   76.4710   -8.0240 C.3    52  PHE52       0.0534
     15  CG        57.8940   77.5650   -7.1260 C.ar   52  PHE52      -0.0203
     16  CD1       56.9970   78.5180   -7.6050 C.ar   52  PHE52      -0.0042
     17  CD2       58.3350   77.6620   -5.8130 C.ar   52  PHE52      -0.0042
     18  CE1       56.5490   79.5460   -6.7910 C.ar   52  PHE52      -0.0003
     19  CE2       57.8900   78.6940   -4.9890 C.ar   52  PHE52      -0.0003
     20  CZ        56.9960   79.6360   -5.4790 C.ar   52  PHE52      -0.0000
     21  N         51.6080   89.8040   -8.5460 N.3   126  LYS126     -0.1245
     22  CA        51.4270   89.2900   -7.1910 C.3   126  LYS126      0.1561
     23  C         51.7250   90.3120   -6.1030 C.2   126  LYS126      0.2260
     24  O         52.8510   90.7890   -5.9680 O.2   126  LYS126     -0.2867
     25  CB        52.2940   88.0400   -6.9950 C.3   126  LYS126      0.0271
     26  CG        51.8790   87.1610   -5.8180 C.3   126  LYS126      0.0035
     27  CD        52.7050   85.8860   -5.7960 C.3   126  LYS126      0.0206
     28  CE        52.2500   84.9260   -4.7150 C.3   126  LYS126      0.1093
     29  NZ        53.0770   83.6900   -4.7350 N.3   126  LYS126     -0.1314
     30  N         54.4990   85.3160   -0.1850 N.3   130  PRO130     -0.2102
     31  CA        54.6790   84.4580    0.9870 C.3   130  PRO130      0.1504
     32  C         56.1450   84.1200    1.1950 C.2   130  PRO130      0.2576
     33  O         57.0180   84.6250    0.4910 O.2   130  PRO130     -0.2718
     34  CB        53.8700   83.2280    0.6150 C.3   130  PRO130      0.0282
     35  CG        54.2410   83.0780   -0.8350 C.3   130  PRO130      0.0208
     36  CD        54.1450   84.5070   -1.3660 C.3   130  PRO130      0.0893
     37  N         56.4060   83.2500    2.1620 N.am  131  GLY131     -0.1957
     38  CA        57.7690   82.8400    2.4250 C.3   131  GLY131      0.1869
     39  C         58.5390   83.7360    3.3680 C.2   131  GLY131      0.2309
     40  O         57.9710   84.4120    4.2250 O.2   131  GLY131     -0.2863
     41  N         61.7410   79.3660    0.2150 N.3   143  HIS143     -0.1241
     42  CA        60.6070   80.0160   -0.4310 C.3   143  HIS143      0.1621
     43  C         60.9390   81.4940   -0.3300 C.2   143  HIS143      0.2264
     44  O         60.3580   82.2280    0.4760 O.2   143  HIS143     -0.2867
     45  CB        59.2840   79.7330    0.2730 C.3   143  HIS143      0.0745
     46  CG        58.1000   79.9410   -0.6160 C.ar  143  HIS143      0.0817
     47  ND1       57.5300   78.9180   -1.3430 N.ar  143  HIS143     -0.2268
     48  CD2       57.4500   81.0700   -0.9840 C.ar  143  HIS143      0.1154
     49  CE1       56.5830   79.4090   -2.1230 C.ar  143  HIS143      0.1986
     50  NE2       56.5150   80.7130   -1.9260 N.ar  143  HIS143     -0.2212
     51  N         60.4010   84.1900   -2.2520 N.3   145  GLU145     -0.1245
     52  CA        59.6940   85.0780   -3.1700 C.3   145  GLU145      0.1567
     53  C         59.8750   86.5450   -2.8020 C.2   145  GLU145      0.2260
     54  O         59.9010   87.4050   -3.6750 O.2   145  GLU145     -0.2867
     55  CB        58.1950   84.7650   -3.1960 C.3   145  GLU145      0.0388
     56  CG        57.8130   83.4890   -3.9160 C.3   145  GLU145      0.1160
     57  CD        56.3190   83.4150   -4.1820 C.2   145  GLU145      0.3649
     58  OE1       55.8020   84.2920   -4.9040 O.co2 145  GLU145     -0.2457
     59  OE2       55.6590   82.4880   -3.6700 O.co2 145  GLU145     -0.2457
     60  N         48.4830   82.5780   -6.5920 N.3   171  ALA171     -0.1231
     61  CA        48.8000   81.7340   -5.4480 C.3   171  ALA171      0.1694
     62  C         48.3730   82.2720   -4.0830 C.2   171  ALA171      0.2592
     63  O         47.1850   82.3600   -3.7830 O.2   171  ALA171     -0.2718
     64  CB        50.3030   81.4310   -5.4450 C.3   171  ALA171      0.0304
     65  N         49.3550   82.6230   -3.2590 N.am  172  ASN172     -0.1974
     66  CA        49.0980   83.1190   -1.9120 C.3   172  ASN172      0.1688
     67  C         47.9590   84.1340   -1.8360 C.2   172  ASN172      0.2292
     68  O         47.2120   84.1500   -0.8590 O.2   172  ASN172     -0.2864
     69  CB        50.3920   83.6990   -1.3200 C.3   172  ASN172      0.1181
     70  CG        50.2560   84.0710    0.1530 C.2   172  ASN172      0.2629
     71  OD1       50.0760   85.2390    0.4950 O.2   172  ASN172     -0.2716
     72  ND2       50.3390   83.0720    1.0310 N.am  172  ASN172     -0.0877
     73  N         45.1180   84.1570   -2.9420 N.3   174  ARG174     -0.1231
     74  CA        43.8180   83.5210   -2.7150 C.3   174  ARG174      0.1694
     75  C         43.4010   83.3720   -1.2610 C.2   174  ARG174      0.2591
     76  O         42.2100   83.1960   -0.9650 O.2   174  ARG174     -0.2718
     77  CB        43.7530   82.1530   -3.4200 C.3   174  ARG174      0.0321
     78  CG        44.6410   81.0190   -2.8600 C.3   174  ARG174      0.0489
     79  CD        44.6620   79.8800   -3.8840 C.3   174  ARG174      0.2205
     80  NE        45.2660   78.6030   -3.4740 N.pl3 174  ARG174     -0.0865
     81  CZ        46.5380   78.4220   -3.1240 C.cat 174  ARG174      0.5346
     82  NH1       47.3850   79.4390   -3.1000 N.pl3 174  ARG174      0.1354
     83  NH2       46.9830   77.1980   -2.8610 N.pl3 174  ARG174      0.1354
     84  N         44.3710   83.4580   -0.3570 N.am  175  ARG175     -0.1980
     85  CA        44.1050   83.3270    1.0730 C.3   175  ARG175      0.1597
     86  C         43.7590   84.6600    1.7370 C.2   175  ARG175      0.2287
     87  O         43.3930   84.6840    2.9080 O.2   175  ARG175     -0.2864
     88  CB        45.3200   82.7230    1.7810 C.3   175  ARG175      0.0334
     89  CG        45.8050   81.4130    1.1760 C.3   175  ARG175      0.0492
     90  CD        47.0610   80.9050    1.8630 C.3   175  ARG175      0.2205
     91  NE        47.6650   79.8230    1.0980 N.pl3 175  ARG175     -0.0865
     92  CZ        47.2670   78.5560    1.1350 C.cat 175  ARG175      0.5346
     93  NH1       46.2590   78.1840    1.9170 N.pl3 175  ARG175      0.1354
     94  NH2       47.8650   77.6620    0.3620 N.pl3 175  ARG175      0.1354
     95  N         51.6240   77.3520   -6.6510 N.3   196  ASN196     -0.1225
     96  CA        52.6970   76.4010   -6.3730 C.3   196  ASN196      0.1785
     97  C         52.6820   76.3490   -4.8530 C.2   196  ASN196      0.2598
     98  O         53.2750   77.1950   -4.1870 O.2   196  ASN196     -0.2718
     99  CB        54.0470   76.9300   -6.8590 C.3   196  ASN196      0.1169
    100  CG        54.1920   76.8590   -8.3630 C.2   196  ASN196      0.2627
    101  OD1       54.6180   75.8370   -8.9130 O.2   196  ASN196     -0.2716
    102  ND2       53.8240   77.9430   -9.0410 N.am  196  ASN196     -0.0877
    103  N         51.9730   75.3660   -4.3150 N.am  197  THR197     -0.1939
    104  CA        51.8320   75.2180   -2.8760 C.3   197  THR197      0.2013
    105  C         52.4240   73.9100   -2.3580 C.2   197  THR197      0.2484
    106  O         51.8460   72.8380   -2.5380 O.2   197  THR197     -0.2729
    107  CB        50.3380   75.2790   -2.4790 C.3   197  THR197      0.1807
    108  OG1       49.7520   76.4770   -3.0090 O.3   197  THR197     -0.2208
    109  CG2       50.1820   75.2730   -0.9640 C.3   197  THR197      0.0379
    110  N         53.6010   73.9800   -1.7220 N.am  198  PRO198     -0.2726
    111  CA        54.2050   72.7510   -1.2000 C.3   198  PRO198      0.1402
    112  C         53.2870   72.1700   -0.1250 C.2   198  PRO198      0.2269
    113  O         52.6980   72.9160    0.6600 O.2   198  PRO198     -0.2865
    114  CB        55.5320   73.2400   -0.6220 C.3   198  PRO198      0.0296
    115  CG        55.8710   74.4070   -1.5050 C.3   198  PRO198      0.0237
    116  CD        54.5350   75.1140   -1.6180 C.3   198  PRO198      0.0939
    117  N         55.2950   72.5780    4.9650 N.3   201  ASN201     -0.1240
    118  CA        55.7090   73.9270    5.3290 C.3   201  ASN201      0.1653
    119  C         56.6650   73.8150    6.5100 C.2   201  ASN201      0.2266
    120  O         56.2580   73.4710    7.6170 O.2   201  ASN201     -0.2867
    121  CB        54.5010   74.7730    5.7210 C.3   201  ASN201      0.1155
    122  CG        54.8780   76.2060    6.0290 C.2   201  ASN201      0.2627
    123  OD1       55.4340   76.9100    5.1810 O.2   201  ASN201     -0.2716
    124  ND2       54.5830   76.6480    7.2450 N.am  201  ASN201     -0.0877
@<TRIPOS>BOND
     1     3     4    2
     2     3     2    1
     3     1     2    1
     4     2     5    1
     5    10    11    1
     6     5     6    1
     7     6     7    1
     8    11    12    1
     9    11    14    1
    10   102   100   am
    11   101   100    2
    12    21    22    1
    13    12    13    2
    14   100    99    1
    15    14    15    1
    16     7     8   ar
    17     7     9   ar
    18    16    15   ar
    19    16    18   ar
    20    22    25    1
    21    22    23    1
    22    15    17   ar
    23    25    26    1
    24    99    96    1
    25    18    20   ar
    26    95    96    1
    27    60    61    1
    28    96    97    1
    29    23    24    2
    30    26    27    1
    31    17    19   ar
    32    27    28    1
    33    20    19   ar
    34    61    64    1
    35    61    62    1
    36    58    57   ar
    37    97   103   am
    38    97    98    2
    39    29    28    1
    40   103   104    1
    41    57    56    1
    42    57    59   ar
    43    62    63    2
    44    62    65   am
    45    56    55    1
    46    79    80    1
    47    79    78    1
    48    54    53    2
    49    80    81    2
    50    77    78    1
    51    77    74    1
    52    65    66    1
    53    55    52    1
    54    52    53    1
    55    52    51    1
    56    81    82    1
    57    81    83    1
    58   108   107    1
    59    73    74    1
    60   104   107    1
    61   104   105    1
    62    74    75    1
    63   106   105    2
    64   107   109    1
    65   105   110   am
    66    49    50   ar
    67    49    47   ar
    68    50    48   ar
    69    66    67    1
    70    66    69    1
    71    67    68    2
    72   110   116    1
    73   110   111    1
    74   116   115    1
    75   115   114    1
    76    36    35    1
    77    36    30    1
    78    47    46   ar
    79    69    70    1
    80    75    76    2
    81    75    84   am
    82   111   114    1
    83   111   112    1
    84    48    46   ar
    85    35    34    1
    86    46    45    1
    87    42    43    1
    88    42    41    1
    89    42    45    1
    90    84    85    1
    91    43    44    2
    92    30    31    1
    93   112   113    2
    94    70    71    2
    95    70    72   am
    96    94    92    1
    97    33    32    2
    98    34    31    1
    99    31    32    1
   100    85    86    1
   101    85    88    1
   102    91    92    2
   103    91    90    1
   104    92    93    1
   105    89    88    1
   106    89    90    1
   107    32    37   am
   108    86    87    2
   109    37    38    1
   110    38    39    1
   111    39    40    2
   112   117   118    1
   113   123   122    2
   114   118   121    1
   115   118   119    1
   116   121   122    1
   117   122   124   am
   118   119   120    2
