@<TRIPOS>MOLECULE
tmp/1uf8A00.pdb
 142 135 0 0 0
SMALL
GASTEIGER

@<TRIPOS>ATOM
      1  N         17.0560   10.7020   45.7740 N.3    46  GLU46      -0.1245
      2  CA        16.1850   11.8180   45.4510 C.3    46  GLU46       0.1567
      3  C         14.8240   11.3460   45.9580 C.2    46  GLU46       0.2260
      4  O         14.5290   10.1460   45.8990 O.2    46  GLU46      -0.2867
      5  CB        16.1410   12.0070   43.9280 C.3    46  GLU46       0.0388
      6  CG        14.8350   12.5820   43.3820 C.3    46  GLU46       0.1160
      7  CD        14.6720   12.3180   41.8900 C.2    46  GLU46       0.3649
      8  OE1       14.8570   11.1570   41.4700 O.co2  46  GLU46      -0.2457
      9  OE2       14.3520   13.2610   41.1400 O.co2  46  GLU46      -0.2457
     10  N          8.0200    7.1060   44.0930 N.3    52  PHE52      -0.1241
     11  CA         8.2410    8.1470   43.0870 C.3    52  PHE52       0.1605
     12  C          6.9130    8.5320   42.4330 C.2    52  PHE52       0.2264
     13  O          6.6460    8.1770   41.2830 O.2    52  PHE52      -0.2867
     14  CB         9.2330    7.6610   42.0240 C.3    52  PHE52       0.0534
     15  CG         9.7640    8.7570   41.1470 C.ar   52  PHE52      -0.0203
     16  CD1       10.6260    9.7210   41.6640 C.ar   52  PHE52      -0.0042
     17  CD2        9.3990    8.8350   39.8080 C.ar   52  PHE52      -0.0042
     18  CE1       11.1150   10.7430   40.8620 C.ar   52  PHE52      -0.0003
     19  CE2        9.8820    9.8540   38.9960 C.ar   52  PHE52      -0.0003
     20  CZ        10.7420   10.8120   39.5220 C.ar   52  PHE52      -0.0000
     21  N         16.0990   20.9600   42.4970 N.3   126  LYS126     -0.1245
     22  CA        16.2940   20.4410   41.1430 C.3   126  LYS126      0.1561
     23  C         15.9930   21.4640   40.0600 C.2   126  LYS126      0.2260
     24  O         14.8640   21.9460   39.9390 O.2   126  LYS126     -0.2867
     25  CB        15.4240   19.1970   40.9380 C.3   126  LYS126      0.0271
     26  CG        15.8410   18.3030   39.7790 C.3   126  LYS126      0.0035
     27  CD        14.9290   17.0850   39.7210 C.3   126  LYS126      0.0206
     28  CE        15.3960   16.0560   38.7130 C.3   126  LYS126      0.1093
     29  NZ        14.5310   14.8450   38.7700 N.3   126  LYS126     -0.1314
     30  N         13.1890   16.5110   34.0960 N.3   130  PRO130     -0.2102
     31  CA        13.0250   15.6410   32.9320 C.3   130  PRO130      0.1504
     32  C         11.5600   15.2750   32.7200 C.2   130  PRO130      0.2576
     33  O         10.7000   15.6530   33.5080 O.2   130  PRO130     -0.2718
     34  CB        13.8570   14.4300   33.3100 C.3   130  PRO130      0.0282
     35  CG        13.5210   14.2830   34.7600 C.3   130  PRO130      0.0208
     36  CD        13.5490   15.7200   35.2870 C.3   130  PRO130      0.0893
     37  N         11.2850   14.5460   31.6460 N.am  131  GLY131     -0.1957
     38  CA         9.9230   14.1210   31.3890 C.3   131  GLY131      0.1869
     39  C          9.0750   15.0240   30.5180 C.2   131  GLY131      0.2309
     40  O          9.5730   15.7590   29.6590 O.2   131  GLY131     -0.2863
     41  N          2.0170    5.7740   27.5790 N.3   139  ARG139     -0.1245
     42  CA         3.0300    5.4080   28.5680 C.3   139  ARG139      0.1563
     43  C          2.5480    4.4720   29.6770 C.2   139  ARG139      0.2260
     44  O          1.4960    4.6980   30.2830 O.2   139  ARG139     -0.2867
     45  CB         3.6070    6.6780   29.2030 C.3   139  ARG139      0.0307
     46  CG         4.0530    7.7250   28.1950 C.3   139  ARG139      0.0489
     47  CD         4.3990    9.0400   28.8760 C.3   139  ARG139      0.2205
     48  NE         5.7070    9.0090   29.5160 N.pl3 139  ARG139     -0.0865
     49  CZ         6.7790    9.6430   29.0520 C.cat 139  ARG139      0.5346
     50  NH1        6.7050   10.3630   27.9410 N.pl3 139  ARG139      0.1354
     51  NH2        7.9270    9.5580   29.7020 N.pl3 139  ARG139      0.1354
     52  N          5.8830   10.5110   33.7750 N.3   143  HIS143     -0.1241
     53  CA         7.0300   11.1600   34.3960 C.3   143  HIS143      0.1621
     54  C          6.7080   12.6410   34.2910 C.2   143  HIS143      0.2264
     55  O          7.2690   13.3710   33.4670 O.2   143  HIS143     -0.2867
     56  CB         8.3400   10.8570   33.6740 C.3   143  HIS143      0.0745
     57  CG         9.5450   11.1080   34.5240 C.ar  143  HIS143      0.0817
     58  ND1       10.2590   10.0920   35.1220 N.ar  143  HIS143     -0.2268
     59  CD2       10.1110   12.2640   34.9460 C.ar  143  HIS143      0.1154
     60  CE1       11.2110   10.6100   35.8780 C.ar  143  HIS143      0.1986
     61  NE2       11.1420   11.9270   35.7890 N.ar  143  HIS143     -0.2212
     62  N          7.3020   15.3160   36.2270 N.3   145  GLU145     -0.1245
     63  CA         8.0230   16.2120   37.1220 C.3   145  GLU145      0.1567
     64  C          7.8060   17.6760   36.7530 C.2   145  GLU145      0.2260
     65  O          7.7470   18.5380   37.6260 O.2   145  GLU145     -0.2867
     66  CB         9.5250   15.9160   37.1020 C.3   145  GLU145      0.0388
     67  CG         9.9210   14.6120   37.7720 C.3   145  GLU145      0.1160
     68  CD        11.4010   14.5640   38.0960 C.2   145  GLU145      0.3649
     69  OE1       11.8660   15.4390   38.8600 O.co2 145  GLU145     -0.2457
     70  OE2       12.0940   13.6560   37.5920 O.co2 145  GLU145     -0.2457
     71  N         19.1310   13.7660   40.6320 N.3   171  ALA171     -0.1231
     72  CA        18.8280   12.8970   39.5040 C.3   171  ALA171      0.1694
     73  C         19.2770   13.3940   38.1310 C.2   171  ALA171      0.2592
     74  O         20.4740   13.4510   37.8420 O.2   171  ALA171     -0.2718
     75  CB        17.3300   12.6020   39.4920 C.3   171  ALA171      0.0304
     76  N         18.3090   13.7450   37.2890 N.am  172  ASN172     -0.1974
     77  CA        18.5770   14.2110   35.9320 C.3   172  ASN172      0.1688
     78  C         19.7050   15.2420   35.8440 C.2   172  ASN172      0.2292
     79  O         20.4200   15.2910   34.8420 O.2   172  ASN172     -0.2864
     80  CB        17.2830   14.7700   35.3190 C.3   172  ASN172      0.1181
     81  CG        17.4320   15.1300   33.8520 C.2   172  ASN172      0.2629
     82  OD1       17.5710   16.3030   33.5010 O.2   172  ASN172     -0.2716
     83  ND2       17.4080   14.1200   32.9870 N.am  172  ASN172     -0.0877
     84  N         22.5400   15.2560   36.9740 N.3   174  ARG174     -0.1231
     85  CA        23.8510   14.6480   36.7710 C.3   174  ARG174      0.1694
     86  C         24.2680   14.4990   35.3200 C.2   174  ARG174      0.2591
     87  O         25.4540   14.3080   35.0270 O.2   174  ARG174     -0.2718
     88  CB        23.9300   13.2930   37.4900 C.3   174  ARG174      0.0321
     89  CG        23.1000   12.1400   36.8970 C.3   174  ARG174      0.0489
     90  CD        23.0290   11.0370   37.9480 C.3   174  ARG174      0.2205
     91  NE        22.4810    9.7470   37.5190 N.pl3 174  ARG174     -0.0865
     92  CZ        21.2240    9.5360   37.1370 C.cat 174  ARG174      0.5346
     93  NH1       20.3510   10.5350   37.0990 N.pl3 174  ARG174      0.1354
     94  NH2       20.8260    8.3020   36.8440 N.pl3 174  ARG174      0.1354
     95  N         23.3030   14.6070   34.4130 N.am  175  ARG175     -0.1980
     96  CA        23.5800   14.4730   32.9840 C.3   175  ARG175      0.1597
     97  C         23.9340   15.8000   32.3150 C.2   175  ARG175      0.2287
     98  O         24.2880   15.8250   31.1390 O.2   175  ARG175     -0.2864
     99  CB        22.3700   13.8720   32.2650 C.3   175  ARG175      0.0334
    100  CG        21.8810   12.5490   32.8480 C.3   175  ARG175      0.0492
    101  CD        20.6190   12.0720   32.1400 C.3   175  ARG175      0.2205
    102  NE        19.9490   11.0290   32.9030 N.pl3 175  ARG175     -0.0865
    103  CZ        20.3550    9.7670   32.9680 C.cat 175  ARG175      0.5346
    104  NH1       21.4300    9.3800   32.2990 N.pl3 175  ARG175      0.1354
    105  NH2       19.7030    8.9010   33.7340 N.pl3 175  ARG175      0.1354
    106  N         16.0050    8.5180   40.7790 N.3   196  ASN196     -0.1225
    107  CA        14.9540    7.5430   40.5090 C.3   196  ASN196      0.1785
    108  C         14.9710    7.5000   38.9890 C.2   196  ASN196      0.2598
    109  O         14.3950    8.3640   38.3330 O.2   196  ASN196     -0.2718
    110  CB        13.5990    8.0440   41.0090 C.3   196  ASN196      0.1169
    111  CG        13.4750    7.9740   42.5190 C.2   196  ASN196      0.2627
    112  OD1       13.1150    6.9360   43.0810 O.2   196  ASN196     -0.2716
    113  ND2       13.7850    9.0770   43.1870 N.am  196  ASN196     -0.0877
    114  N         15.6570    6.5030   38.4430 N.am  197  THR197     -0.1939
    115  CA        15.8050    6.3660   36.9980 C.3   197  THR197      0.2013
    116  C         15.2430    5.0550   36.4580 C.2   197  THR197      0.2484
    117  O         15.8710    4.0000   36.5910 O.2   197  THR197     -0.2729
    118  CB        17.2990    6.4420   36.6030 C.3   197  THR197      0.1807
    119  OG1       17.8670    7.6550   37.1070 O.3   197  THR197     -0.2208
    120  CG2       17.4600    6.4080   35.0860 C.3   197  THR197      0.0379
    121  N         14.0510    5.1020   35.8430 N.am  198  PRO198     -0.2726
    122  CA        13.4430    3.8880   35.2890 C.3   198  PRO198      0.1402
    123  C         14.3510    3.3240   34.1960 C.2   198  PRO198      0.2269
    124  O         14.9180    4.0880   33.4130 O.2   198  PRO198     -0.2865
    125  CB        12.1190    4.3960   34.7180 C.3   198  PRO198      0.0296
    126  CG        11.7740    5.5370   35.6280 C.3   198  PRO198      0.0237
    127  CD        13.1140    6.2380   35.7790 C.3   198  PRO198      0.0939
    128  N         12.3790    3.8420   29.0630 N.3   201  ASN201     -0.1240
    129  CA        11.9990    5.2010   28.6870 C.3   201  ASN201      0.1653
    130  C         11.0130    5.1010   27.5290 C.2   201  ASN201      0.2266
    131  O         11.3950    4.7740   26.4040 O.2   201  ASN201     -0.2867
    132  CB        13.2300    6.0100   28.2630 C.3   201  ASN201      0.1155
    133  CG        12.8910    7.4580   27.9500 C.2   201  ASN201      0.2627
    134  OD1       12.9490    7.8920   26.7980 O.2   201  ASN201     -0.2716
    135  ND2       12.5210    8.2100   28.9770 N.am  201  ASN201     -0.0877
    136  N          9.3770    7.2770   25.4670 N.3   203  PRO203     -0.2116
    137  CA         9.6390    7.9560   24.1960 C.3   203  PRO203      0.1372
    138  C         10.8880    7.4860   23.4470 C.2   203  PRO203      0.2244
    139  O         10.9150    7.4960   22.2160 O.2   203  PRO203     -0.2868
    140  CB         9.7120    9.4260   24.6020 C.3   203  PRO203      0.0268
    141  CG        10.2710    9.3640   25.9860 C.3   203  PRO203      0.0207
    142  CD         9.5030    8.2120   26.6010 C.3   203  PRO203      0.0892
@<TRIPOS>BOND
     1   139   138    2
     2   138   137    1
     3   137   140    1
     4   137   136    1
     5   140   141    1
     6   136   142    1
     7   141   142    1
     8   131   130    2
     9   134   133    2
    10   130   129    1
    11    41    42    1
    12    50    49    1
    13   133   132    1
    14   133   135   am
    15    46    47    1
    16    46    45    1
    17   132   129    1
    18    42    45    1
    19    42    43    1
    20   129   128    1
    21    47    48    1
    22    49    48    2
    23    49    51    1
    24    40    39    2
    25    43    44    2
    26    39    38    1
    27    98    97    2
    28    38    37    1
    29    37    32   am
    30   101   100    1
    31   101   102    1
    32    99   100    1
    33    99    96    1
    34   104   103    1
    35    97    96    1
    36    32    31    1
    37    32    33    2
    38   102   103    2
    39    31    34    1
    40    31    30    1
    41   103   105    1
    42    96    95    1
    43    83    81   am
    44    34    35    1
    45   124   123    2
    46    55    54    2
    47    82    81    2
    48    56    53    1
    49    56    57    1
    50    52    53    1
    51    81    80    1
    52    30    36    1
    53   123   122    1
    54    54    53    1
    55    95    86   am
    56    57    59   ar
    57    57    58   ar
    58   125   122    1
    59   125   126    1
    60    35    36    1
    61    79    78    2
    62    59    61   ar
    63    87    86    2
    64   120   118    1
    65    58    60   ar
    66   122   121    1
    67    80    77    1
    68    86    85    1
    69   126   127    1
    70   127   121    1
    71    61    60   ar
    72   121   116   am
    73    78    77    1
    74    77    76    1
    75    62    63    1
    76   116   117    2
    77   116   115    1
    78   118   115    1
    79   118   119    1
    80    64    63    1
    81    64    65    2
    82    85    84    1
    83    85    88    1
    84    94    92    1
    85    89    88    1
    86    89    90    1
    87   115   114    1
    88    93    92    1
    89    66    63    1
    90    66    67    1
    91    92    91    2
    92    76    73   am
    93    91    90    1
    94    70    68   ar
    95    67    68    1
    96    74    73    2
    97    68    69   ar
    98    73    72    1
    99   109   108    2
   100   114   108   am
   101    28    29    1
   102    28    27    1
   103   108   107    1
   104    19    20   ar
   105    19    17   ar
   106    75    72    1
   107    72    71    1
   108    20    18   ar
   109    27    26    1
   110    26    25    1
   111    17    15   ar
   112    24    23    2
   113    23    22    1
   114   107   106    1
   115   107   110    1
   116    18    16   ar
   117    25    22    1
   118   110   111    1
   119     9     7   ar
   120    22    21    1
   121    15    16   ar
   122    15    14    1
   123    13    12    2
   124     8     7   ar
   125     7     6    1
   126    14    11    1
   127    12    11    1
   128   111   112    2
   129   111   113   am
   130    11    10    1
   131     6     5    1
   132     5     2    1
   133     2     1    1
   134     2     3    1
   135     4     3    2
