@<TRIPOS>MOLECULE
tmp/1uf9C00.pdb
 125 119 0 0 0
SMALL
GASTEIGER

@<TRIPOS>ATOM
      1  N        -33.9320   92.1970   37.3810 N.3    11  ASN11      -0.1225
      2  CA       -33.2410   93.4710   37.5280 C.3    11  ASN11       0.1785
      3  C        -32.8660   94.0540   36.1630 C.2    11  ASN11       0.2597
      4  O        -33.1380   93.4520   35.1210 O.2    11  ASN11      -0.2718
      5  CB       -31.9970   93.2950   38.3940 C.3    11  ASN11       0.1169
      6  CG       -32.3360   93.0700   39.8590 C.2    11  ASN11       0.2627
      7  OD1      -33.0510   92.1370   40.2070 O.2    11  ASN11      -0.2716
      8  ND2      -31.8200   93.9330   40.7230 N.am   11  ASN11      -0.0877
      9  N        -32.2330   95.2260   36.1700 N.am   12  ILE12      -0.1966
     10  CA       -31.8480   95.9130   34.9350 C.3    12  ILE12       0.1727
     11  C        -31.1510   95.0360   33.9010 C.2    12  ILE12       0.2617
     12  O        -30.2380   94.2720   34.2230 O.2    12  ILE12      -0.2715
     13  CB       -30.9530   97.1410   35.2370 C.3    12  ILE12       0.0290
     14  CG1      -31.7620   98.2050   35.9800 C.3    12  ILE12       0.0022
     15  CG2      -30.4390   97.7540   33.9450 C.3    12  ILE12       0.0023
     16  CD1      -32.8970   98.7940   35.1560 C.3    12  ILE12       0.0001
     17  N        -31.5990   95.1610   32.6530 N.am   13  GLY13      -0.1940
     18  CA       -31.0180   94.4050   31.5600 C.3    13  GLY13       0.2014
     19  C        -31.0730   92.9060   31.7400 C.2    13  GLY13       0.2640
     20  O        -30.3500   92.1680   31.0750 O.2    13  GLY13      -0.2714
     21  N        -31.9250   92.4490   32.6450 N.am   14  SER14      -0.1935
     22  CA       -32.0460   91.0230   32.8800 C.3    14  SER14       0.2055
     23  C        -32.5570   90.3660   31.6070 C.2    14  SER14       0.2644
     24  O        -32.1760   89.2420   31.2680 O.2    14  SER14      -0.2714
     25  CB       -33.0040   90.7640   34.0400 C.3    14  SER14       0.2130
     26  OG       -34.1600   91.5710   33.9310 O.3    14  SER14      -0.2179
     27  N        -33.4190   91.0840   30.8960 N.am   15  GLY15      -0.1939
     28  CA       -33.9600   90.5580   29.6620 C.3    15  GLY15       0.2014
     29  C        -35.3720   90.0360   29.7840 C.2    15  GLY15       0.2639
     30  O        -35.9100   89.4880   28.8250 O.2    15  GLY15      -0.2714
     31  N        -35.9810   90.1980   30.9530 N.am   16  LYS16      -0.1963
     32  CA       -37.3480   89.7310   31.1550 C.3    16  LYS16       0.1728
     33  C        -38.2790   90.1220   29.9870 C.2    16  LYS16       0.2617
     34  O        -39.1560   89.3390   29.6130 O.2    16  LYS16      -0.2715
     35  CB       -37.8890   90.2580   32.4900 C.3    16  LYS16       0.0311
     36  CG       -37.7520   91.7600   32.6900 C.3    16  LYS16       0.0038
     37  CD       -38.1170   92.1560   34.1220 C.3    16  LYS16       0.0206
     38  CE       -37.9080   93.6500   34.3880 C.3    16  LYS16       0.1093
     39  NZ       -36.5000   94.0770   34.1840 N.3    16  LYS16      -0.1314
     40  N        -38.0800   91.3100   29.4050 N.am   17  SER17      -0.1936
     41  CA       -38.8940   91.7770   28.2700 C.3    17  SER17       0.2055
     42  C        -38.8440   90.7800   27.1220 C.2    17  SER17       0.2643
     43  O        -39.8390   90.5740   26.4090 O.2    17  SER17      -0.2714
     44  CB       -38.4080   93.1360   27.7540 C.3    17  SER17       0.2130
     45  OG       -38.9050   94.2100   28.5370 O.3    17  SER17      -0.2179
     46  N        -37.6730   90.1770   26.9390 N.am   18  THR18      -0.1950
     47  CA       -37.4850   89.1820   25.8960 C.3    18  THR18       0.1897
     48  C        -38.3760   87.9980   26.2200 C.2    18  THR18       0.2313
     49  O        -38.8970   87.3420   25.3200 O.2    18  THR18      -0.2863
     50  CB       -36.0200   88.7130   25.8250 C.3    18  THR18       0.1794
     51  OG1      -35.2050   89.7660   25.2880 O.3    18  THR18      -0.2208
     52  CG2      -35.9020   87.4870   24.9550 C.3    18  THR18       0.0378
     53  N        -25.7880   94.8660   28.1300 N.3   135  ARG135     -0.1231
     54  CA       -27.0550   94.6110   27.4660 C.3   135  ARG135      0.1694
     55  C        -27.9360   95.8660   27.4590 C.2   135  ARG135      0.2591
     56  O        -28.6090   96.1540   26.4680 O.2   135  ARG135     -0.2718
     57  CB       -27.7570   93.4600   28.1890 C.3   135  ARG135      0.0321
     58  CG       -29.0730   93.0290   27.6050 C.3   135  ARG135      0.0489
     59  CD       -29.5250   91.7020   28.2050 C.3   135  ARG135      0.2205
     60  NE       -28.5090   90.6650   28.0530 N.pl3 135  ARG135     -0.0865
     61  CZ       -28.6690   89.3990   28.4180 C.cat 135  ARG135      0.5346
     62  NH1      -29.8100   88.9970   28.9580 N.pl3 135  ARG135      0.1354
     63  NH2      -27.6830   88.5340   28.2420 N.pl3 135  ARG135      0.1354
     64  N        -27.9190   96.6170   28.5580 N.am  136  VAL136     -0.1980
     65  CA       -28.7200   97.8350   28.6660 C.3   136  VAL136      0.1595
     66  C        -28.0830   99.0130   27.9400 C.2   136  VAL136      0.2287
     67  O        -28.7520   99.6940   27.1680 O.2   136  VAL136     -0.2864
     68  CB       -28.9870   98.2100   30.1590 C.3   136  VAL136      0.0276
     69  CG1      -29.3460   99.6820   30.3000 C.3   136  VAL136      0.0022
     70  CG2      -30.1320   97.3780   30.6850 C.3   136  VAL136      0.0022
     71  N        -29.0010   98.4100   24.3010 N.3   138  ARG138     -0.1245
     72  CA       -30.4250   98.5330   24.0070 C.3   138  ARG138      0.1563
     73  C        -30.9700   99.9620   24.1140 C.2   138  ARG138      0.2260
     74  O        -31.4910  100.5050   23.1430 O.2   138  ARG138     -0.2867
     75  CB       -31.2320   97.6260   24.9420 C.3   138  ARG138      0.0307
     76  CG       -32.7430   97.7240   24.7510 C.3   138  ARG138      0.0489
     77  CD       -33.4960   97.2710   25.9930 C.3   138  ARG138      0.2205
     78  NE       -33.1670   98.0980   27.1500 N.pl3 138  ARG138     -0.0865
     79  CZ       -33.6690   97.9200   28.3660 C.cat 138  ARG138      0.5346
     80  NH1      -34.5300   96.9400   28.5920 N.pl3 138  ARG138      0.1354
     81  NH2      -33.3090   98.7250   29.3550 N.pl3 138  ARG138      0.1354
     82  N        -29.4640  102.4550   39.1890 N.3   149  ARG149     -0.1245
     83  CA       -30.8110  101.9400   39.1780 C.3   149  ARG149      0.1563
     84  C        -30.7720  100.5620   39.8230 C.2   149  ARG149      0.2260
     85  O        -31.7220  100.1560   40.4960 O.2   149  ARG149     -0.2867
     86  CB       -31.3400  101.8490   37.7520 C.3   149  ARG149      0.0307
     87  CG       -31.5860  103.2140   37.1200 C.3   149  ARG149      0.0489
     88  CD       -32.3340  103.0630   35.8130 C.3   149  ARG149      0.2205
     89  NE       -32.4920  104.3110   35.0730 N.pl3 149  ARG149     -0.0865
     90  CZ       -32.9930  104.3690   33.8420 C.cat 149  ARG149      0.5346
     91  NH1      -33.3750  103.2500   33.2330 N.pl3 149  ARG149      0.1354
     92  NH2      -33.1140  105.5330   33.2160 N.pl3 149  ARG149      0.1354
     93  N        -29.4570   83.1090   31.4880 N.3   168  ASN168     -0.1225
     94  CA       -29.2730   83.8100   30.2150 C.3   168  ASN168      0.1785
     95  C        -27.9000   83.6790   29.5730 C.2   168  ASN168      0.2598
     96  O        -26.8740   83.7440   30.2440 O.2   168  ASN168     -0.2718
     97  CB       -29.5930   85.2970   30.3690 C.3   168  ASN168      0.1169
     98  CG       -30.9280   85.6720   29.7610 C.2   168  ASN168      0.2627
     99  OD1      -31.0700   85.7790   28.5470 O.2   168  ASN168     -0.2716
    100  ND2      -31.9180   85.8650   30.6070 N.am  168  ASN168     -0.0877
    101  N        -27.9230   83.5170   28.2510 N.am  169  THR169     -0.1939
    102  CA       -26.7410   83.3770   27.4000 C.3   169  THR169      0.2028
    103  C        -27.1660   83.4830   25.9270 C.2   169  THR169      0.2643
    104  O        -26.9520   84.5120   25.2860 O.2   169  THR169     -0.2714
    105  CB       -26.0520   82.0180   27.5970 C.3   169  THR169      0.1808
    106  OG1      -27.0300   80.9750   27.5090 O.3   169  THR169     -0.2208
    107  CG2      -25.3460   81.9560   28.9420 C.3   169  THR169      0.0379
    108  N        -27.7660   82.4150   25.3990 N.am  170  GLY170     -0.1939
    109  CA       -28.2230   82.4050   24.0140 C.3   170  GLY170      0.2014
    110  C        -29.7250   82.1870   23.9170 C.2   170  GLY170      0.2639
    111  O        -30.2780   81.3480   24.6240 O.2   170  GLY170     -0.2714
    112  N        -30.3950   82.9360   23.0440 N.am  171  SER171     -0.1949
    113  CA       -31.8460   82.8230   22.8820 C.3   171  SER171      0.1924
    114  C        -32.3850   81.3920   22.7410 C.2   171  SER171      0.2314
    115  O        -33.5030   81.0970   23.1640 O.2   171  SER171     -0.2863
    116  CB       -32.3050   83.6590   21.6830 C.3   171  SER171      0.2116
    117  OG       -33.7170   83.6040   21.5210 O.3   171  SER171     -0.2180
    118  N        -32.7890   80.0420   26.2210 N.3   174  ASP174     -0.1239
    119  CA       -33.8430   80.7800   26.9040 C.3   174  ASP174      0.1674
    120  C        -35.1930   80.1980   26.4810 C.2   174  ASP174      0.2266
    121  O        -36.0410   79.8730   27.3180 O.2   174  ASP174     -0.2867
    122  CB       -33.7600   82.2610   26.5210 C.3   174  ASP174      0.1410
    123  CG       -34.5670   83.1560   27.4380 C.2   174  ASP174      0.3668
    124  OD1      -34.6770   84.3630   27.1450 O.co2 174  ASP174     -0.2456
    125  OD2      -35.0860   82.6590   28.4550 O.co2 174  ASP174     -0.2456
@<TRIPOS>BOND
     1   117   116    1
     2   116   113    1
     3   114   113    1
     4   114   115    2
     5   113   112    1
     6   112   110   am
     7    74    73    2
     8   110   109    1
     9   110   111    2
    10    72    73    1
    11    72    71    1
    12    72    75    1
    13   109   108    1
    14    76    75    1
    15    76    77    1
    16    52    50    1
    17   104   103    2
    18    51    50    1
    19    49    48    2
    20   108   103   am
    21    50    47    1
    22    47    48    1
    23    47    46    1
    24   103   102    1
    25    77    78    1
    26   118   119    1
    27    43    42    2
    28    56    55    2
    29   120   119    1
    30   120   121    2
    31   122   119    1
    32   122   123    1
    33    46    42   am
    34    42    41    1
    35   124   123   ar
    36    78    79    2
    37    67    66    2
    38   102   105    1
    39   102   101    1
    40   123   125   ar
    41    55    54    1
    42    55    64   am
    43    54    53    1
    44    54    57    1
    45   106   105    1
    46   105   107    1
    47    58    57    1
    48    58    59    1
    49    44    41    1
    50    44    45    1
    51    66    65    1
    52    60    59    1
    53    60    61    2
    54    63    61    1
    55   101    95   am
    56    41    40    1
    57    79    80    1
    58    79    81    1
    59    61    62    1
    60    99    98    2
    61    64    65    1
    62    65    68    1
    63    30    29    2
    64    40    33   am
    65    95    94    1
    66    95    96    2
    67    34    33    2
    68    28    29    1
    69    28    27    1
    70    98    97    1
    71    98   100   am
    72    29    31   am
    73    33    32    1
    74    68    69    1
    75    68    70    1
    76    94    97    1
    77    94    93    1
    78    27    23   am
    79    31    32    1
    80    20    19    2
    81    32    35    1
    82    24    23    2
    83    18    19    1
    84    18    17    1
    85    23    22    1
    86    19    21   am
    87    35    36    1
    88    21    22    1
    89    17    11   am
    90    36    37    1
    91    22    25    1
    92    92    90    1
    93    91    90    1
    94    90    89    2
    95    11    12    2
    96    11    10    1
    97    26    25    1
    98    15    13    1
    99    37    38    1
   100    39    38    1
   101    10    13    1
   102    10     9    1
   103    89    88    1
   104     4     3    2
   105    16    14    1
   106    13    14    1
   107    88    87    1
   108     3     9   am
   109     3     2    1
   110    87    86    1
   111     1     2    1
   112     2     5    1
   113    86    83    1
   114     5     6    1
   115    83    82    1
   116    83    84    1
   117    84    85    2
   118     6     7    2
   119     6     8   am
