@<TRIPOS>MOLECULE
tmp/1ufjA00.pdb
 146 139 0 0 0
SMALL
GASTEIGER

@<TRIPOS>ATOM
      1  N          2.6210   -5.3910    8.6890 N.3    33  LEU33      -0.1245
      2  CA         1.3220   -4.9310    8.2170 C.3    33  LEU33       0.1561
      3  C          0.6860   -5.9120    7.2370 C.2    33  LEU33       0.2260
      4  O         -0.4850   -6.2750    7.3790 O.2    33  LEU33      -0.2867
      5  CB         1.4680   -3.5750    7.5170 C.3    33  LEU33       0.0270
      6  CG         0.2210   -3.0750    6.7750 C.3    33  LEU33       0.0019
      7  CD1       -0.9400   -2.8780    7.7570 C.3    33  LEU33       0.0001
      8  CD2        0.5590   -1.7770    6.0570 C.3    33  LEU33       0.0001
      9  N         -4.4230   -5.1720    2.8780 N.3    40  THR40      -0.1218
     10  CA        -3.7220   -3.9110    2.6540 C.3    40  THR40       0.1862
     11  C         -2.7220   -4.0140    1.5090 C.2    40  THR40       0.2287
     12  O         -2.3940   -3.0160    0.8670 O.2    40  THR40      -0.2866
     13  CB        -2.9660   -3.4490    3.9240 C.3    40  THR40       0.1770
     14  OG1       -2.0300   -4.4600    4.3210 O.3    40  THR40      -0.2211
     15  CG2       -3.9360   -3.1920    5.0610 C.3    40  THR40       0.0375
     16  N         -3.4090   -2.7680   -2.1980 N.3    43  LYS43      -0.1231
     17  CA        -3.2920   -1.3660   -2.5740 C.3    43  LYS43       0.1693
     18  C         -2.0170   -1.0330   -3.3410 C.2    43  LYS43       0.2592
     19  O         -1.8680    0.0840   -3.8380 O.2    43  LYS43      -0.2718
     20  CB        -3.3680   -0.4830   -1.3250 C.3    43  LYS43       0.0285
     21  CG        -4.7620   -0.3490   -0.7300 C.3    43  LYS43       0.0035
     22  CD        -5.6670    0.4670   -1.6430 C.3    43  LYS43       0.0206
     23  CE        -7.0380    0.6670   -1.0210 C.3    43  LYS43       0.1093
     24  NZ        -7.9430    1.4760   -1.8850 N.3    43  LYS43      -0.1314
     25  N         -1.1050   -1.9940   -3.4390 N.am   44  PHE44      -0.1976
     26  CA         0.1540   -1.7630   -4.1410 C.3    44  PHE44       0.1639
     27  C          0.3220   -2.6570   -5.3660 C.2    44  PHE44       0.2290
     28  O          0.8300   -3.7750   -5.2650 O.2    44  PHE44      -0.2864
     29  CB         1.3430   -1.9790   -3.1980 C.3    44  PHE44       0.0560
     30  CG         1.3040   -1.1250   -1.9600 C.ar   44  PHE44      -0.0200
     31  CD1        0.6540   -1.5650   -0.8120 C.ar   44  PHE44      -0.0042
     32  CD2        1.9240    0.1220   -1.9410 C.ar   44  PHE44      -0.0042
     33  CE1        0.6240   -0.7780    0.3390 C.ar   44  PHE44      -0.0003
     34  CE2        1.9000    0.9140   -0.7970 C.ar   44  PHE44      -0.0003
     35  CZ         1.2500    0.4640    0.3460 C.ar   44  PHE44      -0.0000
     36  N          9.0600    1.9300   -0.4770 N.3    65  HIS65      -0.1241
     37  CA         7.8560    2.4790    0.1250 C.3    65  HIS65       0.1621
     38  C          8.0100    2.6530    1.6320 C.2    65  HIS65       0.2264
     39  O          7.4940    3.6170    2.2060 O.2    65  HIS65      -0.2867
     40  CB         6.6400    1.5990   -0.1540 C.3    65  HIS65       0.0745
     41  CG         5.3520    2.2330    0.2660 C.ar   65  HIS65       0.0817
     42  ND1        4.8590    3.3690   -0.3380 N.ar   65  HIS65      -0.2268
     43  CD2        4.4880    1.9300    1.2630 C.ar   65  HIS65       0.1154
     44  CE1        3.7480    3.7410    0.2710 C.ar   65  HIS65       0.1986
     45  NE2        3.5010    2.8850    1.2460 N.ar   65  HIS65      -0.2212
     46  N          9.6810    5.8590    2.2100 N.3    68  THR68      -0.1203
     47  CA         8.7860    6.9850    1.9630 C.3    68  THR68       0.1994
     48  C          7.8800    7.1940    3.1710 C.2    68  THR68       0.2617
     49  O          7.7630    8.3060    3.6890 O.2    68  THR68      -0.2717
     50  CB         7.9160    6.7450    0.7120 C.3    68  THR68       0.1784
     51  OG1        8.7500    6.7440   -0.4530 O.3    68  THR68      -0.2211
     52  CG2        6.8640    7.8330    0.5690 C.3    68  THR68       0.0376
     53  N          7.2500    6.1160    3.6220 N.am   69  VAL69      -0.1979
     54  CA         6.3580    6.1870    4.7750 C.3    69  VAL69       0.1595
     55  C          7.0440    6.7270    6.0290 C.2    69  VAL69       0.2287
     56  O          6.5500    7.6630    6.6590 O.2    69  VAL69      -0.2864
     57  CB         5.7540    4.7930    5.1030 C.3    69  VAL69       0.0276
     58  CG1        4.9360    4.8650    6.3960 C.3    69  VAL69       0.0022
     59  CG2        4.8660    4.3290    3.9600 C.3    69  VAL69       0.0022
     60  N          8.1230   10.4480    5.7720 N.3    72  GLY72      -0.1210
     61  CA         6.9820   11.3380    5.8950 C.3    72  GLY72       0.1956
     62  C          6.4690   11.3790    7.3220 C.2    72  GLY72       0.2611
     63  O          6.1580   12.4490    7.8490 O.2    72  GLY72      -0.2717
     64  N          6.3830   10.2120    7.9560 N.am   73  LEU73      -0.1979
     65  CA         5.9050   10.1430    9.3290 C.3    73  LEU73       0.1596
     66  C          6.8620   10.8580   10.2750 C.2    73  LEU73       0.2287
     67  O          6.4290   11.5610   11.1850 O.2    73  LEU73      -0.2864
     68  CB         5.7430    8.6820    9.7580 C.3    73  LEU73       0.0297
     69  CG         5.2120    8.4350   11.1710 C.3    73  LEU73       0.0022
     70  CD1        3.8650    9.1200   11.3550 C.3    73  LEU73       0.0001
     71  CD2        5.0790    6.9300   11.3920 C.3    73  LEU73       0.0001
     72  N         -0.7050   14.8320    2.7700 N.3    90  LEU90      -0.1245
     73  CA        -0.7750   13.3950    2.9920 C.3    90  LEU90       0.1561
     74  C         -2.2350   12.9460    3.0150 C.2    90  LEU90       0.2260
     75  O         -2.6000   11.9570    2.3840 O.2    90  LEU90      -0.2867
     76  CB        -0.1000   13.0400    4.3190 C.3    90  LEU90       0.0270
     77  CG         0.0770   11.5670    4.7040 C.3    90  LEU90       0.0019
     78  CD1        0.9870   11.4880    5.9230 C.3    90  LEU90       0.0001
     79  CD2       -1.2670   10.9130    4.9980 C.3    90  LEU90       0.0001
     80  N         -4.1230   10.5030    0.2900 N.3    94  HIS94      -0.1241
     81  CA        -4.6610    9.2160    0.7180 C.3    94  HIS94       0.1621
     82  C         -6.1610    9.0730    0.4980 C.2    94  HIS94       0.2264
     83  O         -6.6610    7.9660    0.3100 O.2    94  HIS94      -0.2867
     84  CB        -4.3300    8.9700    2.1920 C.3    94  HIS94       0.0745
     85  CG        -2.9300    8.4940    2.4190 C.ar   94  HIS94       0.0817
     86  ND1       -1.8260    9.2410    2.0700 N.ar   94  HIS94      -0.2268
     87  CD2       -2.4550    7.3350    2.9310 C.ar   94  HIS94       0.1154
     88  CE1       -0.7300    8.5620    2.3570 C.ar   94  HIS94       0.1986
     89  NE2       -1.0830    7.4010    2.8810 N.ar   94  HIS94      -0.2212
     90  N         -5.1150    7.5800   -3.3340 N.3    98  HIS98      -0.1241
     91  CA        -4.8850    6.2150   -2.8760 C.3    98  HIS98       0.1621
     92  C         -6.1150    5.5430   -2.2730 C.2    98  HIS98       0.2264
     93  O         -6.2440    4.3190   -2.3220 O.2    98  HIS98      -0.2867
     94  CB        -3.7370    6.2050   -1.8660 C.3    98  HIS98       0.0745
     95  CG        -2.5370    6.9750   -2.3220 C.ar   98  HIS98       0.0817
     96  ND1       -1.9790    6.8100   -3.5720 N.ar   98  HIS98      -0.2268
     97  CD2       -1.7980    7.9260   -1.7030 C.ar   98  HIS98       0.1154
     98  CE1       -0.9510    7.6280   -3.7040 C.ar   98  HIS98       0.1986
     99  NE2       -0.8190    8.3160   -2.5840 N.ar   98  HIS98      -0.2212
    100  N         -7.1610    5.3220    1.0100 N.3   100  ILE100     -0.1245
    101  CA        -6.7750    4.4930    2.1420 C.3   100  ILE100      0.1561
    102  C         -7.7240    4.7150    3.3170 C.2   100  ILE100      0.2260
    103  O         -7.8130    5.8160    3.8570 O.2   100  ILE100     -0.2867
    104  CB        -5.3350    4.8120    2.5970 C.3   100  ILE100      0.0252
    105  CG1       -4.3670    4.6620    1.4160 C.3   100  ILE100      0.0019
    106  CG2       -4.9340    3.8960    3.7390 C.3   100  ILE100      0.0019
    107  CD1       -4.4870    3.3330    0.6860 C.3   100  ILE100      0.0001
    108  N         -7.0250    1.1990    7.8430 N.3   104  TYR104     -0.1227
    109  CA        -5.7030    0.7980    7.3660 C.3   104  TYR104      0.1736
    110  C         -4.6360    1.5850    8.1200 C.2   104  TYR104      0.2595
    111  O         -3.5630    1.0560    8.4270 O.2   104  TYR104     -0.2718
    112  CB        -5.5770    1.0450    5.8590 C.3   104  TYR104      0.0548
    113  CG        -6.2160   -0.0240    4.9870 C.ar  104  TYR104     -0.0200
    114  CD1       -7.2330   -0.8480    5.4730 C.ar  104  TYR104     -0.0009
    115  CD2       -5.8030   -0.2000    3.6660 C.ar  104  TYR104     -0.0009
    116  CE1       -7.8230   -1.8220    4.6610 C.ar  104  TYR104      0.0417
    117  CE2       -6.3840   -1.1660    2.8500 C.ar  104  TYR104      0.0417
    118  CZ        -7.3930   -1.9730    3.3520 C.ar  104  TYR104      0.1957
    119  OH        -7.9660   -2.9280    2.5420 O.3   104  TYR104     -0.2866
    120  N         -4.9320    2.8490    8.4170 N.am  105  LEU105     -0.1980
    121  CA        -3.9930    3.6800    9.1570 C.3   105  LEU105      0.1596
    122  C         -3.8650    3.1070   10.5680 C.2   105  LEU105      0.2287
    123  O         -2.8080    3.1850   11.1840 O.2   105  LEU105     -0.2864
    124  CB        -4.4840    5.1260    9.2260 C.3   105  LEU105      0.0297
    125  CG        -4.5810    5.9060    7.9120 C.3   105  LEU105      0.0022
    126  CD1       -5.1960    7.2720    8.2000 C.3   105  LEU105      0.0001
    127  CD2       -3.1970    6.0570    7.2830 C.3   105  LEU105      0.0001
    128  N         -1.4390    0.0810   10.2920 N.3   108  ILE108     -0.1245
    129  CA        -0.0210    0.3930   10.1900 C.3   108  ILE108      0.1561
    130  C          0.5000    0.9750   11.4990 C.2   108  ILE108      0.2260
    131  O          1.6730    0.8130   11.8310 O.2   108  ILE108     -0.2867
    132  CB         0.2930    1.3300    8.9900 C.3   108  ILE108      0.0252
    133  CG1        1.7950    1.2630    8.6820 C.3   108  ILE108      0.0019
    134  CG2       -0.1570    2.7530    9.2810 C.3   108  ILE108      0.0019
    135  CD1        2.1950    1.9090    7.3630 C.3   108  ILE108      0.0001
    136  N         -2.3450   11.7340   14.9380 N.3   139  PHE139     -0.1241
    137  CA        -2.0720   11.6830   13.5080 C.3   139  PHE139      0.1605
    138  C         -3.3130   11.1800   12.7600 C.2   139  PHE139      0.2264
    139  O         -3.7680   11.8030   11.7990 O.2   139  PHE139     -0.2867
    140  CB        -0.8740   10.7480   13.2880 C.3   139  PHE139      0.0534
    141  CG        -0.6230   10.3720   11.8550 C.ar  139  PHE139     -0.0203
    142  CD1       -0.1740   11.3140   10.9340 C.ar  139  PHE139     -0.0042
    143  CD2       -0.7840    9.0510   11.4370 C.ar  139  PHE139     -0.0042
    144  CE1        0.1180   10.9430    9.6160 C.ar  139  PHE139     -0.0003
    145  CE2       -0.4980    8.6720   10.1250 C.ar  139  PHE139     -0.0003
    146  CZ        -0.0450    9.6220    9.2140 C.ar  139  PHE139     -0.0000
@<TRIPOS>BOND
     1    27    28    2
     2    27    26    1
     3    26    25    1
     4    26    29    1
     5    19    18    2
     6    98    96   ar
     7    98    99   ar
     8    96    95   ar
     9    25    18   am
    10    18    17    1
    11    90    91    1
    12    29    30    1
    13    91    92    1
    14    91    94    1
    15    99    97   ar
    16    17    16    1
    17    17    20    1
    18    95    94    1
    19    95    97   ar
    20    93    92    2
    21    30    32   ar
    22    30    31   ar
    23    32    34   ar
    24    24    23    1
    25    22    23    1
    26    22    21    1
    27    20    21    1
    28    31    33   ar
    29    34    35   ar
    30    36    37    1
    31    51    50    1
    32    42    41   ar
    33    42    44   ar
    34    40    37    1
    35    40    41    1
    36    37    38    1
    37    41    43   ar
    38    44    45   ar
    39    80    81    1
    40    83    82    2
    41    33    35   ar
    42    82    81    1
    43    52    50    1
    44   107   105    1
    45    50    47    1
    46    81    84    1
    47    12    11    2
    48   100   101    1
    49    45    43   ar
    50   105   104    1
    51    11    10    1
    52    38    39    2
    53    47    46    1
    54    47    48    1
    55    86    88   ar
    56    86    85   ar
    57   101   104    1
    58   101   102    1
    59    84    85    1
    60    88    89   ar
    61    75    74    2
    62    85    87   ar
    63   119   118    1
    64   104   106    1
    65    10     9    1
    66    10    13    1
    67    72    73    1
    68   117   118   ar
    69   117   115   ar
    70    89    87   ar
    71    73    74    1
    72    73    76    1
    73    48    53   am
    74    48    49    2
    75   102   103    2
    76   118   116   ar
    77    53    54    1
    78   115   113   ar
    79    13    14    1
    80    13    15    1
    81    59    57    1
    82    76    77    1
    83   116   114   ar
    84    77    79    1
    85    77    78    1
    86    54    57    1
    87    54    55    1
    88   113   114   ar
    89   113   112    1
    90    57    58    1
    91    60    61    1
    92   112   109    1
    93    61    62    1
    94    55    56    2
    95     8     6    1
    96     6     5    1
    97     6     7    1
    98     3     4    2
    99     3     2    1
   100   127   125    1
   101    62    63    2
   102    62    64   am
   103   135   133    1
   104   109   108    1
   105   109   110    1
   106     5     2    1
   107   125   126    1
   108   125   124    1
   109    64    65    1
   110   110   120   am
   111   110   111    2
   112     2     1    1
   113   120   121    1
   114   133   132    1
   115   132   134    1
   116   132   129    1
   117   121   124    1
   118   121   122    1
   119   146   144   ar
   120   146   145   ar
   121    65    68    1
   122    65    66    1
   123   144   142   ar
   124    68    69    1
   125   145   143   ar
   126   129   128    1
   127   129   130    1
   128    66    67    2
   129   122   123    2
   130   142   141   ar
   131    69    70    1
   132    69    71    1
   133   143   141   ar
   134   130   131    2
   135   139   138    2
   136   141   140    1
   137   138   137    1
   138   140   137    1
   139   137   136    1
