@<TRIPOS>MOLECULE
tmp/1ufyA02.pdb
 77 78 0 0 0
SMALL
GASTEIGER

@<TRIPOS>ATOM
      1  N         36.0440   52.6630   68.2930 N.3    50  THR50      -0.1203
      2  CA        35.2160   52.8780   69.4580 C.3    50  THR50       0.1994
      3  C         36.0610   53.4000   70.6100 C.2    50  THR50       0.2618
      4  O         37.2870   53.2580   70.6430 O.2    50  THR50      -0.2717
      5  CB        34.4590   51.6000   69.7830 C.3    50  THR50       0.1784
      6  OG1       35.3400   50.4860   69.7680 O.3    50  THR50      -0.2211
      7  CG2       33.3870   51.3200   68.7220 C.3    50  THR50       0.0376
      8  N         35.3900   54.0090   71.6090 N.am   51  GLU51      -0.1965
      9  CA        36.0730   54.6930   72.7140 C.3    51  GLU51       0.1733
     10  C         36.8320   53.7570   73.6250 C.2    51  GLU51       0.2616
     11  O         37.7200   54.2150   74.3670 O.2    51  GLU51      -0.2715
     12  CB        35.1410   55.6890   73.3870 C.3    51  GLU51       0.0429
     13  CG        34.8090   56.8900   72.3970 C.3    51  GLU51       0.1163
     14  CD        34.7160   58.2300   73.0850 C.2    51  GLU51       0.3649
     15  OE1       34.5230   58.1250   74.3000 O.co2  51  GLU51      -0.2457
     16  OE2       34.8180   59.3130   72.4700 O.co2  51  GLU51      -0.2457
     17  N         36.5860   52.4680   73.5530 N.am   52  ASP52      -0.1971
     18  CA        37.2680   51.4300   74.2840 C.3    52  ASP52       0.1709
     19  C         38.5470   50.9340   73.6420 C.2    52  ASP52       0.2293
     20  O         39.1750   50.0210   74.1430 O.2    52  ASP52      -0.2864
     21  CB        36.2690   50.3160   74.5270 C.3    52  ASP52       0.1436
     22  CG        35.5690   49.8260   73.2800 C.2    52  ASP52       0.3671
     23  OD1       36.1270   50.0850   72.1890 O.co2  52  ASP52      -0.2456
     24  OD2       34.5360   49.1500   73.3430 O.co2  52  ASP52      -0.2456
     25  N         30.8220   57.1780   67.8310 N.3    78  VAL78      -0.1231
     26  CA        29.8210   57.5080   68.8690 C.3    78  VAL78       0.1678
     27  C         29.6390   56.3200   69.8450 C.2    78  VAL78       0.2434
     28  O         29.3940   55.2030   69.3710 O.2    78  VAL78      -0.2733
     29  CB        28.4540   57.7880   68.1950 C.3    78  VAL78       0.0265
     30  CG1       27.4110   58.2340   69.2430 C.3    78  VAL78       0.0020
     31  CG2       28.5730   58.8490   67.0720 C.3    78  VAL78       0.0020
     32  N         29.7200   56.5610   71.1570 N.am   79  PRO79      -0.2718
     33  CA        29.5870   55.4490   72.1650 C.3    79  PRO79       0.1535
     34  C         28.1440   55.1180   72.5250 C.2    79  PRO79       0.2598
     35  O         27.7030   55.3870   73.6690 O.2    79  PRO79      -0.2715
     36  CB        30.3970   55.9450   73.3360 C.3    79  PRO79       0.0310
     37  CG        30.1340   57.4580   73.2540 C.3    79  PRO79       0.0237
     38  CD        30.1650   57.7560   71.7620 C.3    79  PRO79       0.0939
     39  N         27.3970   54.5510   71.6320 N.am   80  VAL80      -0.1964
     40  CA        25.9750   54.2960   71.8140 C.3    80  VAL80       0.1712
     41  C         25.7830   53.1740   72.8440 C.2    80  VAL80       0.2458
     42  O         26.4010   52.0790   72.6810 O.2    80  VAL80      -0.2730
     43  CB        25.3430   53.9510   70.4880 C.3    80  VAL80       0.0289
     44  CG1       23.9030   53.4900   70.6710 C.3    80  VAL80       0.0023
     45  CG2       25.4370   55.1340   69.5140 C.3    80  VAL80       0.0023
     46  N         24.9200   53.3110   73.8370 N.am   81  PRO81      -0.2716
     47  CA        24.6680   52.2080   74.7650 C.3    81  PRO81       0.1536
     48  C         24.2160   50.9270   74.0700 C.2    81  PRO81       0.2599
     49  O         23.3250   50.9440   73.2210 O.2    81  PRO81      -0.2715
     50  CB        23.4970   52.7070   75.6760 C.3    81  PRO81       0.0310
     51  CG        23.5560   54.1600   75.4630 C.3    81  PRO81       0.0237
     52  CD        24.1660   54.5270   74.2100 C.3    81  PRO81       0.0939
     53  N         24.8360   49.8290   74.4590 N.am   82  GLY82      -0.1941
     54  CA        24.5270   48.5390   73.9580 C.3    82  GLY82       0.2014
     55  C         25.1280   48.2040   72.6090 C.2    82  GLY82       0.2640
     56  O         24.8980   47.1300   72.0740 O.2    82  GLY82      -0.2714
     57  N         25.8970   49.1460   72.0330 N.am   83  SER83      -0.1935
     58  CA        26.4920   48.8960   70.7520 C.3    83  SER83       0.2055
     59  C         27.7400   48.0320   70.9150 C.2    83  SER83       0.2643
     60  O         28.2680   47.8200   71.9910 O.2    83  SER83      -0.2714
     61  CB        26.8170   50.1460   70.0420 C.3    83  SER83       0.2130
     62  OG        27.7620   50.9490   70.7610 O.3    83  SER83      -0.2179
     63  N         28.1460   47.4610   69.8010 N.am   84  LEU84      -0.1963
     64  CA        29.2380   46.4970   69.7990 C.3    84  LEU84       0.1713
     65  C         30.5380   47.1130   70.3020 C.2    84  LEU84       0.2458
     66  O         30.9440   48.1510   69.7930 O.2    84  LEU84      -0.2730
     67  CB        29.3890   45.9830   68.3950 C.3    84  LEU84       0.0310
     68  CG        30.2610   44.8030   68.1500 C.3    84  LEU84       0.0022
     69  CD1       29.6620   43.5710   68.8920 C.3    84  LEU84       0.0001
     70  CD2       30.3510   44.5420   66.6560 C.3    84  LEU84       0.0001
     71  N         31.1960   46.4750   71.2580 N.am   85  PRO85      -0.2727
     72  CA        32.4960   46.9790   71.7250 C.3    85  PRO85       0.1402
     73  C         33.6470   46.6670   70.7720 C.2    85  PRO85       0.2269
     74  O         33.6080   45.7350   70.0010 O.2    85  PRO85      -0.2865
     75  CB        32.7500   46.1640   73.0020 C.3    85  PRO85       0.0296
     76  CG        31.4100   45.7270   73.4750 C.3    85  PRO85       0.0237
     77  CD        30.6590   45.4390   72.1840 C.3    85  PRO85       0.0939
@<TRIPOS>BOND
     1    70    68    1
     2    31    29    1
     3    25    26    1
     4    68    67    1
     5    68    69    1
     6    29    26    1
     7    29    30    1
     8     1     2    1
     9    67    64    1
    10     7     5    1
    11    26    27    1
    12    28    27    2
    13     2     5    1
    14     2     3    1
    15    45    43    1
    16     6     5    1
    17    66    65    2
    18    64    63    1
    19    64    65    1
    20    63    59   am
    21    27    32   am
    22    74    73    2
    23    61    58    1
    24    61    62    1
    25    65    71   am
    26    43    44    1
    27    43    40    1
    28     3     4    2
    29     3     8   am
    30    58    59    1
    31    58    57    1
    32    73    72    1
    33    59    60    2
    34    32    38    1
    35    32    33    1
    36    71    72    1
    37    71    77    1
    38     8     9    1
    39    39    40    1
    40    39    34   am
    41    72    75    1
    42    38    37    1
    43    40    41    1
    44    57    55   am
    45    56    55    2
    46    33    34    1
    47    33    36    1
    48    77    76    1
    49    23    22   ar
    50    13    14    1
    51    13    12    1
    52    16    14   ar
    53    34    35    2
    54    55    54    1
    55    42    41    2
    56     9    12    1
    57     9    10    1
    58    41    46   am
    59    75    76    1
    60    14    15   ar
    61    49    48    2
    62    37    36    1
    63    22    24   ar
    64    22    21    1
    65    17    10   am
    66    17    18    1
    67    10    11    2
    68    19    20    2
    69    19    18    1
    70    46    52    1
    71    46    47    1
    72    54    53    1
    73    48    53   am
    74    48    47    1
    75    52    51    1
    76    18    21    1
    77    47    50    1
    78    51    50    1
