@<TRIPOS>MOLECULE
tmp/1uh1C00.pdb
 85 84 0 0 0
SMALL
GASTEIGER

@<TRIPOS>ATOM
      1  N         26.7570   85.7520   38.4310 N.3     1  GLY1       -0.1225
      2  CA        25.7610   86.7770   37.9720 C.3     1  GLY1        0.1811
      3  C         24.6490   86.9090   39.0050 C.2     1  GLY1        0.2280
      4  O         24.7010   86.2680   40.0230 O.2     1  GLY1       -0.2866
      5  N         24.9410   92.6680   32.9720 N.3    47  PHE47      -0.1241
      6  CA        25.7560   93.6810   33.6210 C.3    47  PHE47       0.1605
      7  C         26.3160   94.6370   32.5810 C.2    47  PHE47       0.2264
      8  O         26.7080   95.7570   32.9080 O.2    47  PHE47      -0.2867
      9  CB        26.9090   93.0360   34.3840 C.3    47  PHE47       0.0534
     10  CG        26.4830   92.2230   35.5800 C.ar   47  PHE47      -0.0203
     11  CD1       25.1820   92.2930   36.0710 C.ar   47  PHE47      -0.0042
     12  CD2       27.4050   91.4230   36.2490 C.ar   47  PHE47      -0.0042
     13  CE1       24.8120   91.5800   37.2070 C.ar   47  PHE47      -0.0003
     14  CE2       27.0440   90.7100   37.3810 C.ar   47  PHE47      -0.0003
     15  CZ        25.7480   90.7880   37.8650 C.ar   47  PHE47      -0.0000
     16  N         34.8990   83.7860   27.8600 N.3    76  SER76      -0.1217
     17  CA        35.7760   84.4650   28.8130 C.3    76  SER76       0.1889
     18  C         35.9460   83.6120   30.0420 C.2    76  SER76       0.2288
     19  O         36.0450   84.1190   31.1530 O.2    76  SER76      -0.2866
     20  CB        35.2280   85.8290   29.2200 C.3    76  SER76       0.2089
     21  OG        35.4570   86.7810   28.2050 O.3    76  SER76      -0.2183
     22  N         33.7710   81.6510   31.4450 N.3    78  TYR78      -0.1227
     23  CA        32.5390   81.3760   32.1820 C.3    78  TYR78       0.1736
     24  C         31.6350   80.4970   31.3400 C.2    78  TYR78       0.2595
     25  O         31.5030   80.7020   30.1350 O.2    78  TYR78      -0.2718
     26  CB        31.7820   82.6670   32.4920 C.3    78  TYR78       0.0548
     27  CG        32.5260   83.6430   33.3660 C.ar   78  TYR78      -0.0200
     28  CD1       32.5440   83.5000   34.7540 C.ar   78  TYR78      -0.0009
     29  CD2       33.2230   84.7100   32.8020 C.ar   78  TYR78      -0.0009
     30  CE1       33.2420   84.3970   35.5610 C.ar   78  TYR78       0.0417
     31  CE2       33.9270   85.6150   33.5960 C.ar   78  TYR78       0.0417
     32  CZ        33.9330   85.4550   34.9770 C.ar   78  TYR78       0.1957
     33  OH        34.6340   86.3490   35.7680 O.3    78  TYR78      -0.2866
     34  N         31.0170   79.5060   31.9610 N.am   79  VAL79      -0.1966
     35  CA        30.0960   78.6530   31.2300 C.3    79  VAL79       0.1727
     36  C         28.7510   79.3740   31.2160 C.2    79  VAL79       0.2616
     37  O         28.2120   79.7040   32.2630 O.2    79  VAL79      -0.2715
     38  CB        29.9290   77.2940   31.9080 C.3    79  VAL79       0.0290
     39  CG1       28.8760   76.4870   31.1890 C.3    79  VAL79       0.0023
     40  CG2       31.2320   76.5630   31.8820 C.3    79  VAL79       0.0023
     41  N         28.2150   79.6220   30.0310 N.am   80  VAL80      -0.1977
     42  CA        26.9520   80.3260   29.9210 C.3    80  VAL80       0.1596
     43  C         26.0790   79.7400   28.8260 C.2    80  VAL80       0.2287
     44  O         26.5000   78.8480   28.0880 O.2    80  VAL80      -0.2864
     45  CB        27.1770   81.8210   29.5930 C.3    80  VAL80       0.0276
     46  CG1       27.9110   82.5120   30.7320 C.3    80  VAL80       0.0022
     47  CG2       27.9590   81.9480   28.2750 C.3    80  VAL80       0.0022
     48  N         24.8430   87.4890   34.5560 N.3   121  GLY121     -0.1210
     49  CA        25.9470   88.3570   34.9020 C.3   121  GLY121      0.1956
     50  C         26.1490   89.1220   33.6140 C.2   121  GLY121      0.2612
     51  O         25.3080   89.9330   33.2330 O.2   121  GLY121     -0.2717
     52  N         27.2510   88.8660   32.9280 N.am  122  TYR122     -0.1962
     53  CA        27.4850   89.5200   31.6500 C.3   122  TYR122      0.1771
     54  C         26.5520   88.8040   30.6860 C.2   122  TYR122      0.2619
     55  O         26.0320   89.3910   29.7390 O.2   122  TYR122     -0.2715
     56  CB        28.9350   89.3130   31.1890 C.3   122  TYR122      0.0574
     57  CG        29.9190   90.3090   31.7350 C.ar  122  TYR122     -0.0198
     58  CD1       29.7980   90.7980   33.0350 C.ar  122  TYR122     -0.0009
     59  CD2       30.9850   90.7510   30.9620 C.ar  122  TYR122     -0.0009
     60  CE1       30.7170   91.7050   33.5470 C.ar  122  TYR122      0.0417
     61  CE2       31.9120   91.6540   31.4630 C.ar  122  TYR122      0.0417
     62  CZ        31.7720   92.1260   32.7530 C.ar  122  TYR122      0.1957
     63  OH        32.6780   93.0280   33.2500 O.3   122  TYR122     -0.2866
     64  N         26.3510   87.5180   30.9520 N.am  123  TRP123     -0.1974
     65  CA        25.5040   86.6860   30.1210 C.3   123  TRP123      0.1640
     66  C         24.6300   85.7990   30.9800 C.2   123  TRP123      0.2290
     67  O         24.7830   85.7470   32.2020 O.2   123  TRP123     -0.2864
     68  CB        26.3720   85.8320   29.2020 C.3   123  TRP123      0.0576
     69  CG        27.3050   86.6590   28.3840 C.ar  123  TRP123      0.0006
     70  CD1       26.9770   87.4970   27.3510 C.ar  123  TRP123      0.0946
     71  CD2       28.7180   86.8140   28.5800 C.ar  123  TRP123      0.0152
     72  NE1       28.0940   88.1660   26.9020 N.ar  123  TRP123     -0.2442
     73  CE2       29.1740   87.7600   27.6460 C.ar  123  TRP123      0.0810
     74  CE3       29.6310   86.2380   29.4710 C.ar  123  TRP123      0.0012
     75  CZ2       30.5160   88.1510   27.5650 C.ar  123  TRP123      0.0191
     76  CZ3       30.9670   86.6270   29.3900 C.ar  123  TRP123      0.0001
     77  CH2       31.3930   87.5760   28.4450 C.ar  123  TRP123      0.0015
     78  N         23.9080   82.9620   32.7700 N.3   125  ASP125     -0.1239
     79  CA        24.7250   81.8820   33.3170 C.3   125  ASP125      0.1674
     80  C         24.0670   80.5060   33.2010 C.2   125  ASP125      0.2266
     81  O         24.7070   79.5310   32.8010 O.2   125  ASP125     -0.2867
     82  CB        25.0450   82.1690   34.7860 C.3   125  ASP125      0.1410
     83  CG        25.7040   83.5140   34.9770 C.2   125  ASP125      0.3668
     84  OD1       26.7580   83.7350   34.3490 O.co2 125  ASP125     -0.2456
     85  OD2       25.1750   84.3470   35.7470 O.co2 125  ASP125     -0.2456
@<TRIPOS>BOND
     1    72    70   ar
     2    72    73   ar
     3    70    69   ar
     4    75    73   ar
     5    75    77   ar
     6    73    71   ar
     7    16    17    1
     8    44    43    2
     9    21    20    1
    10    47    45    1
    11    69    71   ar
    12    69    68    1
    13    77    76   ar
    14    71    74   ar
    15    17    20    1
    16    17    18    1
    17    43    42    1
    18    68    65    1
    19    76    74   ar
    20    45    42    1
    21    45    46    1
    22    55    54    2
    23    42    41    1
    24    41    36   am
    25    18    19    2
    26    65    64    1
    27    65    66    1
    28    25    24    2
    29    54    64   am
    30    54    53    1
    31    59    61   ar
    32    59    57   ar
    33    66    67    2
    34    56    53    1
    35    56    57    1
    36    39    38    1
    37    36    35    1
    38    36    37    2
    39    35    38    1
    40    35    34    1
    41    24    34   am
    42    24    23    1
    43    22    23    1
    44    61    62   ar
    45    53    52    1
    46    57    58   ar
    47    40    38    1
    48    23    26    1
    49    26    27    1
    50     7     8    2
    51     7     6    1
    52    62    63    1
    53    62    60   ar
    54    78    79    1
    55    81    80    2
    56    29    27   ar
    57    29    31   ar
    58    52    50   am
    59     5     6    1
    60    58    60   ar
    61    80    79    1
    62    51    50    2
    63    79    82    1
    64    27    28   ar
    65    31    32   ar
    66    50    49    1
    67     6     9    1
    68    84    83   ar
    69     9    10    1
    70    48    49    1
    71    28    30   ar
    72    82    83    1
    73    32    30   ar
    74    32    33    1
    75    83    85   ar
    76    10    11   ar
    77    10    12   ar
    78    11    13   ar
    79    12    14   ar
    80    13    15   ar
    81    14    15   ar
    82     2     1    1
    83     2     3    1
    84     3     4    2
