@<TRIPOS>MOLECULE
tmp/1uh2A01.pdb
 146 141 0 0 0
SMALL
GASTEIGER

@<TRIPOS>ATOM
      1  N         36.9950   15.7010   49.5730 N.3    51  TRP51      -0.1241
      2  CA        36.4150   16.6520   50.5030 C.3    51  TRP51       0.1605
      3  C         34.9110   16.4060   50.4570 C.2    51  TRP51       0.2264
      4  O         34.3340   16.3130   49.3740 O.2    51  TRP51      -0.2867
      5  CB        36.7370   18.0760   50.0450 C.3    51  TRP51       0.0550
      6  CG        36.0920   19.1440   50.8620 C.ar   51  TRP51       0.0003
      7  CD1       34.8690   19.7230   50.6500 C.ar   51  TRP51       0.0946
      8  CD2       36.6160   19.7370   52.0540 C.ar   51  TRP51       0.0152
      9  NE1       34.6020   20.6410   51.6390 N.ar   51  TRP51      -0.2442
     10  CE2       35.6580   20.6680   52.5150 C.ar   51  TRP51       0.0810
     11  CE3       37.8030   19.5680   52.7810 C.ar   51  TRP51       0.0012
     12  CZ2       35.8510   21.4290   53.6710 C.ar   51  TRP51       0.0191
     13  CZ3       37.9940   20.3240   53.9310 C.ar   51  TRP51       0.0001
     14  CH2       37.0200   21.2440   54.3650 C.ar   51  TRP51       0.0015
     15  N         31.3070   17.9100   51.4470 N.3    53  THR53      -0.1218
     16  CA        30.6140   19.1080   51.8920 C.3    53  THR53       0.1862
     17  C         29.6350   18.7850   53.0160 C.2    53  THR53       0.2287
     18  O         29.1420   19.6850   53.6850 O.2    53  THR53      -0.2866
     19  CB        29.8460   19.7960   50.7320 C.3    53  THR53       0.1770
     20  OG1       28.9560   18.8580   50.1160 O.3    53  THR53      -0.2211
     21  CG2       30.8250   20.3300   49.6840 C.3    53  THR53       0.0375
     22  N         38.2000   16.2310   54.8820 N.3    58  PHE58      -0.1241
     23  CA        38.7370   15.2980   53.8980 C.3    58  PHE58       0.1605
     24  C         38.5300   13.8550   54.3470 C.2    58  PHE58       0.2264
     25  O         38.5040   13.5620   55.5450 O.2    58  PHE58      -0.2867
     26  CB        40.2320   15.5530   53.6840 C.3    58  PHE58       0.0534
     27  CG        40.5330   16.7280   52.7880 C.ar   58  PHE58      -0.0203
     28  CD1       41.1420   17.8710   53.2960 C.ar   58  PHE58      -0.0042
     29  CD2       40.2350   16.6760   51.4280 C.ar   58  PHE58      -0.0042
     30  CE1       41.4580   18.9460   52.4630 C.ar   58  PHE58      -0.0003
     31  CE2       40.5450   17.7460   50.5820 C.ar   58  PHE58      -0.0003
     32  CZ        41.1590   18.8830   51.1000 C.ar   58  PHE58      -0.0000
     33  N         34.4020   16.4920   46.3100 N.3    89  TYR89      -0.1241
     34  CA        35.4490   16.8530   45.3550 C.3    89  TYR89       0.1605
     35  C         36.6340   15.9340   45.6540 C.2    89  TYR89       0.2264
     36  O         37.0400   15.8310   46.8070 O.2    89  TYR89      -0.2867
     37  CB        35.8890   18.3090   45.5510 C.3    89  TYR89       0.0534
     38  CG        34.7540   19.3070   45.6560 C.ar   89  TYR89      -0.0201
     39  CD1       34.3170   19.7650   46.8970 C.ar   89  TYR89      -0.0009
     40  CD2       34.1430   19.8240   44.5120 C.ar   89  TYR89      -0.0009
     41  CE1       33.3020   20.7230   46.9980 C.ar   89  TYR89       0.0417
     42  CE2       33.1320   20.7780   44.6040 C.ar   89  TYR89       0.0417
     43  CZ        32.7200   21.2240   45.8470 C.ar   89  TYR89       0.1957
     44  OH        31.7380   22.1910   45.9360 O.3    89  TYR89      -0.2866
     45  N         40.6650   13.9890   44.5360 N.3    91  ARG91      -0.1245
     46  CA        41.9650   14.0320   43.8770 C.3    91  ARG91       0.1563
     47  C         42.6610   12.7300   44.2720 C.2    91  ARG91       0.2260
     48  O         42.1990   12.0200   45.1740 O.2    91  ARG91      -0.2867
     49  CB        42.7850   15.2440   44.3530 C.3    91  ARG91       0.0307
     50  CG        43.2420   15.1540   45.8050 C.3    91  ARG91       0.0489
     51  CD        43.9260   16.4280   46.2890 C.3    91  ARG91       0.2205
     52  NE        43.0250   17.5800   46.2800 N.pl3  91  ARG91      -0.0865
     53  CZ        42.9680   18.4960   47.2460 C.cat  91  ARG91       0.5346
     54  NH1       43.7600   18.3960   48.3110 N.pl3  91  ARG91       0.1354
     55  NH2       42.1240   19.5130   47.1470 N.pl3  91  ARG91       0.1354
     56  N         45.0900   22.3930   45.4250 N.3   114  ASN114     -0.1225
     57  CA        44.0140   22.8310   46.3070 C.3   114  ASN114      0.1785
     58  C         42.8060   23.2880   45.4950 C.2   114  ASN114      0.2597
     59  O         41.8000   23.7250   46.0530 O.2   114  ASN114     -0.2718
     60  CB        44.4960   23.9680   47.2170 C.3   114  ASN114      0.1169
     61  CG        44.9650   25.1840   46.4410 C.2   114  ASN114      0.2627
     62  OD1       45.5870   26.0850   47.0050 O.2   114  ASN114     -0.2716
     63  ND2       44.6660   25.2230   45.1470 N.am  114  ASN114     -0.0877
     64  N         42.9190   23.1850   44.1760 N.am  115  ALA115     -0.1966
     65  CA        41.8440   23.5750   43.2710 C.3   115  ALA115      0.1728
     66  C         41.7910   22.6120   42.0870 C.2   115  ALA115      0.2616
     67  O         42.7130   21.8230   41.8770 O.2   115  ALA115     -0.2715
     68  CB        42.0670   25.0040   42.7720 C.3   115  ALA115      0.0334
     69  N         40.7070   22.6850   41.3200 N.am  116  ASP116     -0.1957
     70  CA        40.5280   21.8360   40.1490 C.3   116  ASP116      0.1840
     71  C         40.3920   20.3470   40.4550 C.2   116  ASP116      0.2622
     72  O         40.8370   19.4980   39.6790 O.2   116  ASP116     -0.2715
     73  CB        41.6670   22.0620   39.1470 C.3   116  ASP116      0.1450
     74  CG        41.5100   23.3580   38.3700 C.2   116  ASP116      0.3671
     75  OD1       42.4610   23.7530   37.6660 O.co2 116  ASP116     -0.2456
     76  OD2       40.4300   23.9780   38.4540 O.co2 116  ASP116     -0.2456
     77  N         39.7800   20.0300   41.5890 N.am  117  ASP117     -0.1971
     78  CA        39.5430   18.6340   41.9430 C.3   117  ASP117      0.1709
     79  C         38.3990   18.1400   41.0560 C.2   117  ASP117      0.2293
     80  O         37.7100   18.9490   40.4290 O.2   117  ASP117     -0.2864
     81  CB        39.1330   18.5370   43.4100 C.3   117  ASP117      0.1436
     82  CG        40.3120   18.6880   44.3490 C.2   117  ASP117      0.3671
     83  OD1       40.1110   19.2200   45.4580 O.co2 117  ASP117     -0.2456
     84  OD2       41.4310   18.2610   43.9780 O.co2 117  ASP117     -0.2456
     85  N         34.6830   16.5220   40.3160 N.3   119  TYR119     -0.1241
     86  CA        33.3820   16.7120   40.9550 C.3   119  TYR119      0.1605
     87  C         32.4600   15.4980   41.0340 C.2   119  TYR119      0.2264
     88  O         32.3820   14.6840   40.1140 O.2   119  TYR119     -0.2867
     89  CB        32.5840   17.7960   40.2170 C.3   119  TYR119      0.0534
     90  CG        33.1840   19.1810   40.2200 C.ar  119  TYR119     -0.0201
     91  CD1       32.7910   20.1260   41.1650 C.ar  119  TYR119     -0.0009
     92  CD2       34.1350   19.5540   39.2630 C.ar  119  TYR119     -0.0009
     93  CE1       33.3240   21.4150   41.1600 C.ar  119  TYR119      0.0417
     94  CE2       34.6790   20.8420   39.2510 C.ar  119  TYR119      0.0417
     95  CZ        34.2650   21.7650   40.2010 C.ar  119  TYR119      0.1957
     96  OH        34.7810   23.0370   40.1900 O.3   119  TYR119     -0.2866
     97  N         34.6750   32.0920   33.2320 N.3   400  ASN400     -0.1240
     98  CA        34.5290   30.8210   33.9430 C.3   400  ASN400      0.1653
     99  C         33.1550   30.8010   34.6060 C.2   400  ASN400      0.2266
    100  O         32.9380   31.4850   35.6000 O.2   400  ASN400     -0.2867
    101  CB        35.6380   30.6920   34.9960 C.3   400  ASN400      0.1155
    102  CG        35.5040   29.4410   35.8450 C.2   400  ASN400      0.2627
    103  OD1       34.6440   28.5910   35.6020 O.2   400  ASN400     -0.2716
    104  ND2       36.3630   29.3200   36.8500 N.am  400  ASN400     -0.0877
    105  N         31.7810   28.5900   36.3610 N.3   402  ASN402     -0.1226
    106  CA        31.7330   27.6500   37.4700 C.3   402  ASN402      0.1770
    107  C         30.6840   28.0260   38.5330 C.2   402  ASN402      0.2439
    108  O         29.9810   27.1560   39.0610 O.2   402  ASN402     -0.2733
    109  CB        33.1280   27.5540   38.1120 C.3   402  ASN402      0.1168
    110  CG        33.1530   26.6500   39.3250 C.2   402  ASN402      0.2627
    111  OD1       32.6240   26.9980   40.3780 O.2   402  ASN402     -0.2716
    112  ND2       33.7630   25.4780   39.1820 N.am  402  ASN402     -0.0877
    113  N         30.5530   29.3260   38.8550 N.am  403  PRO403     -0.2729
    114  CA        29.5780   29.7640   39.8670 C.3   403  PRO403      0.1401
    115  C         28.0980   29.4520   39.5880 C.2   403  PRO403      0.2269
    116  O         27.2850   29.4350   40.5140 O.2   403  PRO403     -0.2865
    117  CB        29.8260   31.2690   39.9580 C.3   403  PRO403      0.0296
    118  CG        31.2690   31.4090   39.5760 C.3   403  PRO403      0.0237
    119  CD        31.3760   30.4600   38.4050 C.3   403  PRO403      0.0939
    120  N         28.8100   24.5240   38.8540 N.3   406  ALA406     -0.1231
    121  CA        29.4680   23.5760   39.7540 C.3   406  ALA406      0.1694
    122  C         28.7870   23.1140   41.0450 C.2   406  ALA406      0.2591
    123  O         29.3910   22.3730   41.8220 O.2   406  ALA406     -0.2718
    124  CB        30.8800   24.0760   40.0660 C.3   406  ALA406      0.0304
    125  N         27.5530   23.5410   41.2890 N.am  407  GLN407     -0.1979
    126  CA        26.8370   23.0810   42.4740 C.3   407  GLN407      0.1601
    127  C         25.6020   22.3000   42.0310 C.2   407  GLN407      0.2287
    128  O         24.7930   21.8590   42.8500 O.2   407  GLN407     -0.2864
    129  CB        26.4570   24.2570   43.3740 C.3   407  GLN407      0.0394
    130  CG        27.6820   24.9270   44.0010 C.3   407  GLN407      0.0908
    131  CD        27.3260   26.0050   45.0060 C.2   407  GLN407      0.2608
    132  OE1       26.8640   25.7160   46.1110 O.2   407  GLN407     -0.2717
    133  NE2       27.5380   27.2590   44.6260 N.am  407  GLN407     -0.0878
    134  N         38.5910   21.8180   33.4020 N.3   454  ALA454     -0.1231
    135  CA        38.7030   21.5710   34.8350 C.3   454  ALA454      0.1694
    136  C         37.8320   22.5130   35.6610 C.2   454  ALA454      0.2592
    137  O         37.6070   22.2660   36.8420 O.2   454  ALA454     -0.2718
    138  CB        40.1700   21.6800   35.2850 C.3   454  ALA454      0.0304
    139  N         37.3530   23.5950   35.0480 N.am  455  ASN455     -0.1974
    140  CA        36.4830   24.5400   35.7550 C.3   455  ASN455      0.1688
    141  C         35.0890   23.9530   35.9280 C.2   455  ASN455      0.2292
    142  O         34.2870   24.4760   36.7070 O.2   455  ASN455     -0.2864
    143  CB        36.2970   25.8510   34.9750 C.3   455  ASN455      0.1181
    144  CG        37.5270   26.7320   34.9780 C.2   455  ASN455      0.2629
    145  OD1       38.3220   26.7140   35.9150 O.2   455  ASN455     -0.2716
    146  ND2       37.6710   27.5380   33.9290 N.am  455  ASN455     -0.0877
@<TRIPOS>BOND
     1    97    98    1
     2   134   135    1
     3   146   144   am
     4    98    99    1
     5    98   101    1
     6    99   100    2
     7   135   138    1
     8   135   136    1
     9   143   144    1
    10   143   140    1
    11   144   145    2
    12   101   102    1
    13   139   136   am
    14   139   140    1
    15   103   102    2
    16   136   137    2
    17   140   141    1
    18   102   104   am
    19   141   142    2
    20   105   106    1
    21   106   109    1
    22   106   107    1
    23    75    74   ar
    24   109   110    1
    25    74    76   ar
    26    74    73    1
    27   119   113    1
    28   119   118    1
    29   107   113   am
    30   107   108    2
    31   120   121    1
    32   113   114    1
    33    73    70    1
    34   112   110   am
    35    94    92   ar
    36    94    95   ar
    37    92    90   ar
    38   110   111    2
    39   118   117    1
    40   115   114    1
    41   115   116    2
    42    72    71    2
    43   121   124    1
    44   121   122    1
    45   114   117    1
    46    88    87    2
    47    70    71    1
    48    70    69    1
    49    96    95    1
    50    95    93   ar
    51    89    90    1
    52    89    86    1
    53    90    91   ar
    54    85    86    1
    55    80    79    2
    56    71    77   am
    57    86    87    1
    58   122   125   am
    59   122   123    2
    60    79    78    1
    61    93    91   ar
    62   125   126    1
    63    69    66   am
    64    77    78    1
    65    67    66    2
    66    78    81    1
    67   127   126    1
    68   127   128    2
    69    66    65    1
    70   126   129    1
    71    68    65    1
    72    65    64    1
    73   129   130    1
    74    81    82    1
    75    46    47    1
    76    46    49    1
    77    46    45    1
    78    84    82   ar
    79   130   131    1
    80    64    58   am
    81    47    48    2
    82    82    83   ar
    83    49    50    1
    84    40    42   ar
    85    40    38   ar
    86    42    43   ar
    87   133   131   am
    88   131   132    2
    89    63    61   am
    90    34    37    1
    91    34    35    1
    92    34    33    1
    93    56    57    1
    94    58    59    2
    95    58    57    1
    96    37    38    1
    97    35    36    2
    98    38    39   ar
    99    50    51    1
   100    43    44    1
   101    43    41   ar
   102    52    51    1
   103    52    53    2
   104    57    60    1
   105    61    62    2
   106    61    60    1
   107    39    41   ar
   108    55    53    1
   109    53    54    1
   110     4     3    2
   111     1     2    1
   112    21    19    1
   113     5     2    1
   114     5     6    1
   115    20    19    1
   116     3     2    1
   117    31    32   ar
   118    31    29   ar
   119     7     6   ar
   120     7     9   ar
   121    19    16    1
   122     6     8   ar
   123    32    30   ar
   124    29    27   ar
   125    15    16    1
   126     9    10   ar
   127    16    17    1
   128     8    10   ar
   129     8    11   ar
   130    30    28   ar
   131    10    12   ar
   132    11    13   ar
   133    27    28   ar
   134    27    26    1
   135    17    18    2
   136    12    14   ar
   137    26    23    1
   138    23    24    1
   139    23    22    1
   140    13    14   ar
   141    24    25    2
