@<TRIPOS>MOLECULE
tmp/1uh2A00.pdb
 193 188 0 0 0
SMALL
GASTEIGER

@<TRIPOS>ATOM
      1  N         18.5280   52.9810   10.9700 N.3   180  ASP180     -0.1239
      2  CA        19.3380   52.4240   12.0490 C.3   180  ASP180      0.1674
      3  C         19.6400   50.9450   11.8110 C.2   180  ASP180      0.2266
      4  O         18.7950   50.2030   11.3190 O.2   180  ASP180     -0.2867
      5  CB        18.6030   52.6000   13.3810 C.3   180  ASP180      0.1410
      6  CG        19.4910   52.3350   14.5770 C.2   180  ASP180      0.3668
      7  OD1       20.4340   53.1210   14.8040 O.co2 180  ASP180     -0.2456
      8  OD2       19.2500   51.3380   15.2870 O.co2 180  ASP180     -0.2456
      9  N         19.8190   48.5530   13.8470 N.3   182  SER182     -0.1217
     10  CA        18.9420   47.6960   14.6330 C.3   182  SER182      0.1889
     11  C         17.5520   47.6070   14.0130 C.2   182  SER182      0.2288
     12  O         16.7020   46.8480   14.4820 O.2   182  SER182     -0.2866
     13  CB        18.8320   48.2270   16.0650 C.3   182  SER182      0.2089
     14  OG        20.1050   48.2950   16.6810 O.3   182  SER182     -0.2183
     15  N         17.0420   42.2180   16.1200 N.3   221  HIS221     -0.1241
     16  CA        17.6390   41.1900   16.9720 C.3   221  HIS221      0.1621
     17  C         16.6060   40.7640   18.0150 C.2   221  HIS221      0.2264
     18  O         16.5530   39.6030   18.4350 O.2   221  HIS221     -0.2867
     19  CB        18.9140   41.7090   17.6540 C.3   221  HIS221      0.0745
     20  CG        18.7220   42.9620   18.4500 C.ar  221  HIS221      0.0817
     21  ND1       19.0410   44.2120   17.9620 N.ar  221  HIS221     -0.2268
     22  CD2       18.2590   43.1580   19.7070 C.ar  221  HIS221      0.1154
     23  CE1       18.7860   45.1220   18.8850 C.ar  221  HIS221      0.1986
     24  NE2       18.3110   44.5080   19.9540 N.ar  221  HIS221     -0.2212
     25  N         16.1510   41.7270   21.3210 N.3   223  TYR223     -0.1227
     26  CA        16.5270   41.4830   22.7080 C.3   223  TYR223      0.1736
     27  C         15.8160   42.5320   23.5650 C.2   223  TYR223      0.2595
     28  O         15.9220   42.5270   24.7910 O.2   223  TYR223     -0.2718
     29  CB        18.0440   41.5750   22.9020 C.3   223  TYR223      0.0548
     30  CG        18.7750   40.2950   22.5530 C.ar  223  TYR223     -0.0200
     31  CD1       19.2550   40.0680   21.2630 C.ar  223  TYR223     -0.0009
     32  CD2       18.9410   39.2860   23.5050 C.ar  223  TYR223     -0.0009
     33  CE1       19.8810   38.8700   20.9280 C.ar  223  TYR223      0.0417
     34  CE2       19.5590   38.0830   23.1810 C.ar  223  TYR223      0.0417
     35  CZ        20.0260   37.8800   21.8900 C.ar  223  TYR223      0.1957
     36  OH        20.6200   36.6860   21.5510 O.3   223  TYR223     -0.2866
     37  N         15.0840   43.4250   22.9000 N.am  224  ASP224     -0.1974
     38  CA        14.3220   44.4810   23.5690 C.3   224  ASP224      0.1709
     39  C         12.8390   44.0970   23.5100 C.2   224  ASP224      0.2293
     40  O         12.0210   44.7680   22.8780 O.2   224  ASP224     -0.2864
     41  CB        14.5790   45.8310   22.8820 C.3   224  ASP224      0.1436
     42  CG        14.0690   45.8800   21.4480 C.2   224  ASP224      0.3671
     43  OD1       14.2850   44.9110   20.6850 O.co2 224  ASP224     -0.2456
     44  OD2       13.4550   46.9050   21.0790 O.co2 224  ASP224     -0.2456
     45  N         16.1030   41.9170   31.3940 N.3   267  HIS267     -0.1241
     46  CA        15.4880   43.1930   31.0580 C.3   267  HIS267      0.1621
     47  C         14.4580   43.0220   29.9520 C.2   267  HIS267      0.2264
     48  O         14.4210   41.9930   29.2830 O.2   267  HIS267     -0.2867
     49  CB        16.5690   44.1300   30.5300 C.3   267  HIS267      0.0745
     50  CG        17.4080   43.5100   29.4540 C.ar  267  HIS267      0.0817
     51  ND1       18.5890   42.8470   29.7180 N.ar  267  HIS267     -0.2268
     52  CD2       17.1930   43.3760   28.1230 C.ar  267  HIS267      0.1154
     53  CE1       19.0620   42.3310   28.5970 C.ar  267  HIS267      0.1986
     54  NE2       18.2330   42.6370   27.6150 N.ar  267  HIS267     -0.2212
     55  N         20.3520   47.3060   31.0200 N.3   310  PHE310     -0.1241
     56  CA        21.4270   46.4340   30.5880 C.3   310  PHE310      0.1605
     57  C         22.5610   47.3170   30.0930 C.2   310  PHE310      0.2264
     58  O         22.4010   48.0650   29.1240 O.2   310  PHE310     -0.2867
     59  CB        20.9680   45.4950   29.4660 C.3   310  PHE310      0.0534
     60  CG        22.0950   44.7050   28.8470 C.ar  310  PHE310     -0.0203
     61  CD1       22.7110   45.1430   27.6760 C.ar  310  PHE310     -0.0042
     62  CD2       22.5810   43.5560   29.4730 C.ar  310  PHE310     -0.0042
     63  CE1       23.8000   44.4520   27.1340 C.ar  310  PHE310     -0.0003
     64  CE2       23.6730   42.8540   28.9450 C.ar  310  PHE310     -0.0003
     65  CZ        24.2830   43.3050   27.7730 C.ar  310  PHE310     -0.0000
     66  N         23.7510   50.1490   30.6860 N.3   312  GLY312     -0.1210
     67  CA        23.5140   51.5430   30.3530 C.3   312  GLY312      0.1956
     68  C         22.6480   51.8280   29.1370 C.2   312  GLY312      0.2612
     69  O         22.5030   52.9850   28.7430 O.2   312  GLY312     -0.2717
     70  N         22.0800   50.7920   28.5290 N.am  313  PHE313     -0.1962
     71  CA        21.2110   50.9870   27.3740 C.3   313  PHE313      0.1771
     72  C         19.8070   51.3220   27.8700 C.2   313  PHE313      0.2620
     73  O         19.1040   50.4540   28.3870 O.2   313  PHE313     -0.2715
     74  CB        21.1550   49.7200   26.5180 C.3   313  PHE313      0.0574
     75  CG        22.3760   49.4990   25.6760 C.ar  313  PHE313     -0.0200
     76  CD1       22.5040   50.1210   24.4370 C.ar  313  PHE313     -0.0042
     77  CD2       23.4030   48.6710   26.1210 C.ar  313  PHE313     -0.0042
     78  CE1       23.6400   49.9220   23.6460 C.ar  313  PHE313     -0.0003
     79  CE2       24.5440   48.4630   25.3420 C.ar  313  PHE313     -0.0003
     80  CZ        24.6630   49.0920   24.1000 C.ar  313  PHE313     -0.0000
     81  N         19.4080   52.5820   27.7160 N.am  314  ASN314     -0.1958
     82  CA        18.0820   53.0290   28.1440 C.3   314  ASN314      0.1819
     83  C         16.9600   52.2580   27.4600 C.2   314  ASN314      0.2622
     84  O         15.8380   52.2100   27.9610 O.2   314  ASN314     -0.2715
     85  CB        17.9100   54.5190   27.8580 C.3   314  ASN314      0.1195
     86  CG        18.6140   55.3910   28.8740 C.2   314  ASN314      0.2630
     87  OD1       18.7300   56.6030   28.6900 O.2   314  ASN314     -0.2716
     88  ND2       19.0780   54.7830   29.9600 N.am  314  ASN314     -0.0877
     89  N         17.2570   51.6570   26.3120 N.am  315  SER315     -0.1936
     90  CA        16.2410   50.9010   25.5910 C.3   315  SER315      0.2055
     91  C         16.0280   49.5290   26.2290 C.2   315  SER315      0.2642
     92  O         15.1420   48.7810   25.8210 O.2   315  SER315     -0.2714
     93  CB        16.6430   50.7350   24.1220 C.3   315  SER315      0.2130
     94  OG        17.8770   50.0480   24.0020 O.3   315  SER315     -0.2179
     95  N         16.8310   49.2130   27.2410 N.am  316  LEU316     -0.1977
     96  CA        16.7330   47.9260   27.9150 C.3   316  LEU316      0.1596
     97  C         16.5660   48.0280   29.4330 C.2   316  LEU316      0.2287
     98  O         17.4680   47.6670   30.1880 O.2   316  LEU316     -0.2864
     99  CB        17.9760   47.0860   27.6060 C.3   316  LEU316      0.0297
    100  CG        18.2580   46.7740   26.1340 C.3   316  LEU316      0.0022
    101  CD1       19.5410   45.9650   26.0300 C.3   316  LEU316      0.0001
    102  CD2       17.0980   46.0060   25.5340 C.3   316  LEU316      0.0001
    103  N         18.2490   29.4770   26.4420 N.3   354  ARG354     -0.1245
    104  CA        19.5990   30.0220   26.4610 C.3   354  ARG354      0.1563
    105  C         19.3480   31.3180   27.2460 C.2   354  ARG354      0.2260
    106  O         18.5660   32.1640   26.8070 O.2   354  ARG354     -0.2867
    107  CB        20.0840   30.3050   25.0330 C.3   354  ARG354      0.0307
    108  CG        21.4020   31.0880   24.9380 C.3   354  ARG354      0.0489
    109  CD        21.1490   32.5880   25.0320 C.3   354  ARG354      0.2205
    110  NE        22.3530   33.3880   24.8260 N.pl3 354  ARG354     -0.0865
    111  CZ        22.3530   34.7180   24.7600 C.cat 354  ARG354      0.5346
    112  NH1       23.4880   35.3830   24.5720 N.pl3 354  ARG354      0.1354
    113  NH2       21.2130   35.3850   24.8800 N.pl3 354  ARG354      0.1354
    114  N         19.9060   34.8260   28.3000 N.3   356  ASN356     -0.1225
    115  CA        20.5690   36.0710   27.9270 C.3   356  ASN356      0.1785
    116  C         21.0000   36.8970   29.1460 C.2   356  ASN356      0.2597
    117  O         20.2660   36.9860   30.1260 O.2   356  ASN356     -0.2718
    118  CB        19.6390   36.9220   27.0640 C.3   356  ASN356      0.1169
    119  CG        20.3090   38.1840   26.5810 C.2   356  ASN356      0.2627
    120  OD1       21.2410   38.1240   25.7830 O.2   356  ASN356     -0.2716
    121  ND2       19.8530   39.3300   27.0680 N.am  356  ASN356     -0.0877
    122  N         22.2050   37.4620   29.0840 N.am  357  ALA357     -0.1979
    123  CA        22.7470   38.3160   30.1420 C.3   357  ALA357      0.1597
    124  C         22.4450   37.7710   31.5330 C.2   357  ALA357      0.2287
    125  O         22.1210   38.5290   32.4490 O.2   357  ALA357     -0.2864
    126  CB        22.1720   39.7270   30.0070 C.3   357  ALA357      0.0319
    127  N         24.3280   32.5030   29.3130 N.3   396  GLN396     -0.1245
    128  CA        25.3330   33.2720   28.5860 C.3   396  GLN396      0.1566
    129  C         26.3320   33.7880   29.6070 C.2   396  GLN396      0.2260
    130  O         25.9440   34.3640   30.6220 O.2   396  GLN396     -0.2867
    131  CB        24.7280   34.4750   27.8590 C.3   396  GLN396      0.0367
    132  CG        25.8180   35.3890   27.2780 C.3   396  GLN396      0.0905
    133  CD        25.2860   36.7160   26.7900 C.2   396  GLN396      0.2608
    134  OE1       24.4870   37.3620   27.4670 O.2   396  GLN396     -0.2717
    135  NE2       25.7440   37.1440   25.6190 N.am  396  GLN396     -0.0878
    136  N         30.7880   35.0280   29.5390 N.3   398  TRP398     -0.1241
    137  CA        32.0430   35.0940   28.7960 C.3   398  TRP398      0.1605
    138  C         33.2660   34.4650   29.4580 C.2   398  TRP398      0.2264
    139  O         34.2340   34.1330   28.7720 O.2   398  TRP398     -0.2867
    140  CB        32.3650   36.5510   28.4360 C.3   398  TRP398      0.0550
    141  CG        31.3140   37.2090   27.6030 C.ar  398  TRP398      0.0003
    142  CD1       30.0770   37.6230   28.0150 C.ar  398  TRP398      0.0946
    143  CD2       31.3970   37.5240   26.2080 C.ar  398  TRP398      0.0152
    144  NE1       29.3870   38.1770   26.9640 N.ar  398  TRP398     -0.2442
    145  CE2       30.1730   38.1290   25.8420 C.ar  398  TRP398      0.0810
    146  CE3       32.3870   37.3550   25.2310 C.ar  398  TRP398      0.0012
    147  CZ2       29.9130   38.5660   24.5400 C.ar  398  TRP398      0.0191
    148  CZ3       32.1280   37.7890   23.9360 C.ar  398  TRP398      0.0001
    149  CH2       30.8990   38.3880   23.6040 C.ar  398  TRP398      0.0015
    150  N         26.4630   35.6480   17.2770 N.3   471  HIS471     -0.1226
    151  CA        25.9670   37.0050   17.0450 C.3   471  HIS471      0.1752
    152  C         26.6620   38.1630   17.7560 C.2   471  HIS471      0.2596
    153  O         26.3760   39.3240   17.4580 O.2   471  HIS471     -0.2718
    154  CB        24.4740   37.0670   17.3660 C.3   471  HIS471      0.0759
    155  CG        24.1590   36.7640   18.7960 C.ar  471  HIS471      0.0818
    156  ND1       24.4760   35.5610   19.3860 N.ar  471  HIS471     -0.2268
    157  CD2       23.5760   37.5150   19.7610 C.ar  471  HIS471      0.1154
    158  CE1       24.1030   35.5830   20.6530 C.ar  471  HIS471      0.1986
    159  NE2       23.5550   36.7580   20.9060 N.ar  471  HIS471     -0.2212
    160  N         27.5630   37.8740   18.6870 N.am  472  ASP472     -0.1974
    161  CA        28.2450   38.9500   19.4010 C.3   472  ASP472      0.1709
    162  C         29.7370   39.0870   19.1160 C.2   472  ASP472      0.2293
    163  O         30.4030   39.9390   19.7000 O.2   472  ASP472     -0.2864
    164  CB        28.0440   38.8060   20.9100 C.3   472  ASP472      0.1436
    165  CG        26.6030   38.9990   21.3260 C.2   472  ASP472      0.3671
    166  OD1       25.9480   39.9260   20.8080 O.co2 472  ASP472     -0.2456
    167  OD2       26.1300   38.2310   22.1840 O.co2 472  ASP472     -0.2456
    168  N         29.3210   43.1190   15.1920 N.3   516  ASP516     -0.1225
    169  CA        27.9020   43.4830   15.1720 C.3   516  ASP516      0.1790
    170  C         27.7030   44.8100   14.4250 C.2   516  ASP516      0.2439
    171  O         28.3760   45.7920   14.7200 O.2   516  ASP516     -0.2733
    172  CB        27.4260   43.6150   16.6260 C.3   516  ASP516      0.1423
    173  CG        25.9380   43.8610   16.7480 C.2   516  ASP516      0.3668
    174  OD1       25.4690   44.0290   17.8940 O.co2 516  ASP516     -0.2456
    175  OD2       25.2340   43.8860   15.7220 O.co2 516  ASP516     -0.2456
    176  N         26.7650   44.8640   13.4620 N.am  517  PRO517     -0.2729
    177  CA        25.8500   43.8270   12.9770 C.3   517  PRO517      0.1401
    178  C         26.3300   43.0500   11.7510 C.2   517  PRO517      0.2269
    179  O         25.5650   42.2820   11.1720 O.2   517  PRO517     -0.2865
    180  CB        24.6010   44.6250   12.6570 C.3   517  PRO517      0.0296
    181  CG        25.1970   45.8340   12.0070 C.3   517  PRO517      0.0237
    182  CD        26.3640   46.1810   12.9280 C.3   517  PRO517      0.0939
    183  N         25.8100   39.2490   11.2340 N.3   520  ARG520     -0.1245
    184  CA        24.4600   38.7300   11.0630 C.3   520  ARG520      0.1563
    185  C         23.9590   38.8360    9.6180 C.2   520  ARG520      0.2260
    186  O         22.7910   39.1420    9.3770 O.2   520  ARG520     -0.2867
    187  CB        23.5170   39.4770   12.0110 C.3   520  ARG520      0.0307
    188  CG        23.9990   39.4530   13.4590 C.3   520  ARG520      0.0489
    189  CD        23.2660   40.4470   14.3550 C.3   520  ARG520      0.2205
    190  NE        23.8420   40.4540   15.7000 N.pl3 520  ARG520     -0.0865
    191  CZ        23.3750   41.1660   16.7220 C.cat 520  ARG520      0.5346
    192  NH1       22.3120   41.9480   16.5670 N.pl3 520  ARG520      0.1354
    193  NH2       23.9710   41.0900   17.9040 N.pl3 520  ARG520      0.1354
@<TRIPOS>BOND
     1   186   185    2
     2   185   184    1
     3     1     2    1
     4   184   183    1
     5   184   187    1
     6   179   178    2
     7     4     3    2
     8   178   177    1
     9     3     2    1
    10   181   180    1
    11   181   182    1
    12   187   188    1
    13     2     5    1
    14   180   177    1
    15   182   176    1
    16   177   176    1
    17     5     6    1
    18   188   189    1
    19   176   170   am
    20     9    10    1
    21    11    12    2
    22    11    10    1
    23   189   190    1
    24   170   171    2
    25   170   169    1
    26     6     7   ar
    27     6     8   ar
    28    10    13    1
    29   169   168    1
    30   169   172    1
    31   190   191    2
    32   175   173   ar
    33    13    14    1
    34    15    16    1
    35   192   191    1
    36   172   173    1
    37   191   193    1
    38   173   174   ar
    39    16    19    1
    40    16    17    1
    41   151   150    1
    42   151   154    1
    43   151   152    1
    44   154   155    1
    45   153   152    2
    46    19    20    1
    47   152   160   am
    48    21    20   ar
    49    21    23   ar
    50    17    18    2
    51    20    22   ar
    52   160   161    1
    53   155   156   ar
    54   155   157   ar
    55    23    24   ar
    56   162   161    1
    57   162   163    2
    58   156   158   ar
    59   161   164    1
    60    22    24   ar
    61   157   159   ar
    62   158   159   ar
    63    43    42   ar
    64   166   165   ar
    65   164   165    1
    66    33    31   ar
    67    33    35   ar
    68    44    42   ar
    69    31    30   ar
    70    25    26    1
    71   165   167   ar
    72    42    41    1
    73    36    35    1
    74    35    34   ar
    75    30    29    1
    76    30    32   ar
    77    26    29    1
    78    26    27    1
    79    40    39    2
    80    41    38    1
    81    37    27   am
    82    37    38    1
    83    34    32   ar
    84    39    38    1
    85    27    28    2
    86   149   148   ar
    87   149   147   ar
    88    78    80   ar
    89    78    76   ar
    90   148   146   ar
    91    94    93    1
    92    80    79   ar
    93    93    90    1
    94    76    75   ar
    95   147   145   ar
    96   112   111    1
    97   111   110    2
    98   111   113    1
    99   110   109    1
   100   108   109    1
   101   108   107    1
   102   107   104    1
   103   146   143   ar
   104    79    77   ar
   105   102   100    1
   106    90    91    1
   107    90    89    1
   108   135   133   am
   109    75    77   ar
   110    75    74    1
   111   120   119    2
   112    92    91    2
   113   145   143   ar
   114   145   144   ar
   115   101   100    1
   116   100    99    1
   117   143   141   ar
   118    91    95   am
   119    89    83   am
   120   103   104    1
   121   104   105    1
   122    74    71    1
   123   119   118    1
   124   119   121   am
   125   133   132    1
   126   133   134    2
   127   106   105    2
   128   144   142   ar
   129   118   115    1
   130    63    61   ar
   131    63    65   ar
   132    95    96    1
   133   132   131    1
   134    71    72    1
   135    71    70    1
   136    83    84    2
   137    83    82    1
   138   141   142   ar
   139   141   140    1
   140    99    96    1
   141    54    52   ar
   142    54    53   ar
   143    61    60   ar
   144    81    72   am
   145    81    82    1
   146    65    64   ar
   147    85    82    1
   148    85    86    1
   149   131   128    1
   150    72    73    2
   151    96    97    1
   152   115   114    1
   153   115   116    1
   154    52    50   ar
   155   140   137    1
   156    70    68   am
   157   128   127    1
   158   128   129    1
   159    53    51   ar
   160    87    86    2
   161    69    68    2
   162   139   138    2
   163   137   138    1
   164   137   136    1
   165    60    59    1
   166    60    62   ar
   167    86    88   am
   168    64    62   ar
   169   122   116   am
   170   122   123    1
   171    58    57    2
   172    68    67    1
   173   116   117    2
   174    48    47    2
   175    97    98    2
   176    50    51   ar
   177    50    49    1
   178    59    56    1
   179   129   130    2
   180    47    46    1
   181   126   123    1
   182    57    56    1
   183   123   124    1
   184    67    66    1
   185    49    46    1
   186    56    55    1
   187    46    45    1
   188   124   125    2
