@<TRIPOS>MOLECULE
tmp/1uh3A05.pdb
 81 75 0 0 0
SMALL
GASTEIGER

@<TRIPOS>ATOM
      1  N         34.8080   32.1410   33.5750 N.3   400  ASN400     -0.1240
      2  CA        34.6300   30.8570   34.2570 C.3   400  ASN400      0.1653
      3  C         33.2210   30.8490   34.8730 C.2   400  ASN400      0.2266
      4  O         32.9660   31.5590   35.8380 O.2   400  ASN400     -0.2867
      5  CB        35.6860   30.7080   35.3610 C.3   400  ASN400      0.1155
      6  CG        35.6010   29.3700   36.0880 C.2   400  ASN400      0.2627
      7  OD1       34.5830   28.6750   36.0260 O.2   400  ASN400     -0.2716
      8  ND2       36.6690   29.0130   36.7980 N.am  400  ASN400     -0.0877
      9  N         35.4730   31.1300   27.1370 N.3   418  ASP418     -0.1239
     10  CA        36.7810   30.9160   27.7550 C.3   418  ASP418      0.1674
     11  C         37.3840   29.5130   27.6280 C.2   418  ASP418      0.2266
     12  O         38.6070   29.3620   27.6050 O.2   418  ASP418     -0.2867
     13  CB        36.7050   31.3050   29.2360 C.3   418  ASP418      0.1410
     14  CG        38.0600   31.2980   29.9160 C.2   418  ASP418      0.3668
     15  OD1       38.9210   32.1270   29.5530 O.co2 418  ASP418     -0.2456
     16  OD2       38.2640   30.4610   30.8190 O.co2 418  ASP418     -0.2456
     17  N         42.8450   31.8400   19.1950 N.3   426  GLU426     -0.1245
     18  CA        44.2470   32.1960   19.3670 C.3   426  GLU426      0.1567
     19  C         45.2330   31.1480   18.8340 C.2   426  GLU426      0.2260
     20  O         46.3070   31.4970   18.3370 O.2   426  GLU426     -0.2867
     21  CB        44.5190   32.4910   20.8450 C.3   426  GLU426      0.0388
     22  CG        43.6390   33.6090   21.4130 C.3   426  GLU426      0.1160
     23  CD        44.2780   34.3300   22.5900 C.2   426  GLU426      0.3649
     24  OE1       43.6390   35.2500   23.1480 O.co2 426  GLU426     -0.2457
     25  OE2       45.4250   33.9820   22.9530 O.co2 426  GLU426     -0.2457
     26  N         48.9350   31.4510   20.5980 N.3   440  ILE440     -0.1245
     27  CA        49.3910   30.4780   21.5820 C.3   440  ILE440      0.1561
     28  C         49.9240   29.2420   20.8690 C.2   440  ILE440      0.2260
     29  O         49.4700   28.8970   19.7760 O.2   440  ILE440     -0.2867
     30  CB        48.2540   30.0400   22.5460 C.3   440  ILE440      0.0252
     31  CG1       47.0690   29.4970   21.7450 C.3   440  ILE440      0.0019
     32  CG2       47.8380   31.2020   23.4210 C.3   440  ILE440      0.0019
     33  CD1       45.9370   28.9910   22.5920 C.3   440  ILE440      0.0001
     34  N         50.6810   25.3730   24.9420 N.3   444  GLN444     -0.1245
     35  CA        49.8840   26.3720   25.6440 C.3   444  GLN444      0.1566
     36  C         48.3900   26.1380   25.4360 C.2   444  GLN444      0.2260
     37  O         47.5840   26.3030   26.3500 O.2   444  GLN444     -0.2867
     38  CB        50.2830   27.7540   25.1370 C.3   444  GLN444      0.0367
     39  CG        50.1410   28.8780   26.1360 C.3   444  GLN444      0.0905
     40  CD        51.0450   30.0450   25.7860 C.2   444  GLN444      0.2608
     41  OE1       52.2670   29.8880   25.6920 O.2   444  GLN444     -0.2717
     42  NE2       50.4520   31.2250   25.5890 N.am  444  GLN444     -0.0878
     43  N         47.1400   23.1310   27.4740 N.3   447  SER447     -0.1202
     44  CA        47.0690   23.4920   28.8830 C.3   447  SER447      0.2020
     45  C         45.8150   24.3360   29.1190 C.2   447  SER447      0.2618
     46  O         45.0300   24.0520   30.0270 O.2   447  SER447     -0.2717
     47  CB        48.3150   24.2830   29.2770 C.3   447  SER447      0.2103
     48  OG        48.1780   24.8470   30.5640 O.3   447  SER447     -0.2182
     49  N         45.6360   25.3650   28.2870 N.am  448  TRP448     -0.1975
     50  CA        44.4820   26.2570   28.3720 C.3   448  TRP448      0.1640
     51  C         43.2010   25.4260   28.4380 C.2   448  TRP448      0.2290
     52  O         42.3470   25.6370   29.3030 O.2   448  TRP448     -0.2864
     53  CB        44.4340   27.1670   27.1390 C.3   448  TRP448      0.0576
     54  CG        43.3960   28.2680   27.1880 C.ar  448  TRP448      0.0006
     55  CD1       42.1120   28.1720   27.6540 C.ar  448  TRP448      0.0946
     56  CD2       43.5530   29.6220   26.7350 C.ar  448  TRP448      0.0152
     57  NE1       41.4660   29.3780   27.5240 N.ar  448  TRP448     -0.2442
     58  CE2       42.3250   30.2850   26.9640 C.ar  448  TRP448      0.0810
     59  CE3       44.6130   30.3390   26.1570 C.ar  448  TRP448      0.0012
     60  CZ2       42.1270   31.6330   26.6370 C.ar  448  TRP448      0.0191
     61  CZ3       44.4160   31.6800   25.8300 C.ar  448  TRP448      0.0001
     62  CH2       43.1830   32.3120   26.0730 C.ar  448  TRP448      0.0015
     63  N         42.8190   23.4060   31.8230 N.3   451  GLY451     -0.1210
     64  CA        42.4950   24.2470   32.9580 C.3   451  GLY451      0.1956
     65  C         41.0510   24.7040   32.9760 C.2   451  GLY451      0.2612
     66  O         40.4290   24.7660   34.0350 O.2   451  GLY451     -0.2717
     67  N         40.5120   25.0300   31.8070 N.am  452  THR452     -0.1952
     68  CA        39.1310   25.4870   31.7160 C.3   452  THR452      0.1897
     69  C         38.1750   24.3050   31.7700 C.2   452  THR452      0.2313
     70  O         37.0390   24.4210   32.2240 O.2   452  THR452     -0.2863
     71  CB        38.8940   26.2860   30.4250 C.3   452  THR452      0.1794
     72  OG1       39.3580   25.5280   29.2980 O.3   452  THR452     -0.2208
     73  CG2       39.6350   27.6220   30.4920 C.3   452  THR452      0.0378
     74  N         37.3370   23.4720   35.3180 N.3   455  ASN455     -0.1240
     75  CA        36.5040   24.4100   36.0610 C.3   455  ASN455      0.1653
     76  C         35.1140   23.8370   36.2630 C.2   455  ASN455      0.2266
     77  O         34.3620   24.3100   37.1150 O.2   455  ASN455     -0.2867
     78  CB        36.3370   25.7340   35.3080 C.3   455  ASN455      0.1155
     79  CG        37.5550   26.6260   35.3940 C.2   455  ASN455      0.2627
     80  OD1       38.2360   26.6800   36.4250 O.2   455  ASN455     -0.2716
     81  ND2       37.8210   27.3590   34.3170 N.am  455  ASN455     -0.0877
@<TRIPOS>BOND
     1    20    19    2
     2    19    18    1
     3    17    18    1
     4    18    21    1
     5    29    28    2
     6    26    27    1
     7    21    22    1
     8    28    27    1
     9    22    23    1
    10    27    30    1
    11    31    30    1
    12    31    33    1
    13    30    32    1
    14    23    25   ar
    15    23    24   ar
    16    34    35    1
    17    38    35    1
    18    38    39    1
    19    36    35    1
    20    36    37    2
    21    42    40   am
    22    41    40    2
    23    40    39    1
    24    61    62   ar
    25    61    59   ar
    26    62    60   ar
    27    59    56   ar
    28    60    58   ar
    29    56    58   ar
    30    56    54   ar
    31    58    57   ar
    32     9    10    1
    33    53    54    1
    34    53    50    1
    35    54    55   ar
    36    43    44    1
    37    57    55   ar
    38    12    11    2
    39    11    10    1
    40    10    13    1
    41    49    50    1
    42    49    45   am
    43    50    51    1
    44    51    52    2
    45    44    45    1
    46    44    47    1
    47    45    46    2
    48    13    14    1
    49    47    48    1
    50    72    71    1
    51    15    14   ar
    52    14    16   ar
    53    71    73    1
    54    71    68    1
    55    68    69    1
    56    68    67    1
    57    69    70    2
    58    67    65   am
    59    63    64    1
    60    64    65    1
    61    65    66    2
    62     1     2    1
    63     2     3    1
    64     2     5    1
    65    81    79   am
    66     3     4    2
    67    78    79    1
    68    78    75    1
    69    74    75    1
    70     5     6    1
    71    79    80    2
    72     7     6    2
    73    75    76    1
    74     6     8   am
    75    76    77    2
