@<TRIPOS>MOLECULE
tmp/1uh3A01.pdb
 109 107 0 0 0
SMALL
GASTEIGER

@<TRIPOS>ATOM
      1  N         20.5790   47.4730   31.3700 N.3   310  PHE310     -0.1227
      2  CA        21.6240   46.5670   30.9370 C.3   310  PHE310      0.1736
      3  C         22.8020   47.4060   30.4360 C.2   310  PHE310      0.2595
      4  O         22.7140   48.0530   29.3930 O.2   310  PHE310     -0.2718
      5  CB        21.1120   45.6570   29.8180 C.3   310  PHE310      0.0547
      6  CG        22.2060   44.9690   29.0680 C.ar  310  PHE310     -0.0202
      7  CD1       22.7340   45.5390   27.9090 C.ar  310  PHE310     -0.0042
      8  CD2       22.7790   43.8000   29.5710 C.ar  310  PHE310     -0.0042
      9  CE1       23.8200   44.9660   27.2660 C.ar  310  PHE310     -0.0003
     10  CE2       23.8720   43.2110   28.9400 C.ar  310  PHE310     -0.0003
     11  CZ        24.3980   43.7970   27.7810 C.ar  310  PHE310     -0.0000
     12  N         23.8900   47.4120   31.1980 N.am  311  LEU311     -0.1980
     13  CA        25.1000   48.1510   30.8470 C.3   311  LEU311      0.1596
     14  C         24.9250   49.5950   30.3690 C.2   311  LEU311      0.2287
     15  O         25.6260   50.0440   29.4600 O.2   311  LEU311     -0.2864
     16  CB        25.9000   47.3590   29.8060 C.3   311  LEU311      0.0297
     17  CG        26.9770   46.4180   30.3520 C.3   311  LEU311      0.0022
     18  CD1       26.4770   45.6910   31.5820 C.3   311  LEU311      0.0001
     19  CD2       27.3790   45.4320   29.2720 C.3   311  LEU311      0.0001
     20  N         20.2510   34.8630   28.5390 N.3   356  ASP356     -0.1225
     21  CA        20.9310   36.0840   28.1320 C.3   356  ASP356      0.1805
     22  C         21.2680   36.9600   29.3370 C.2   356  ASP356      0.2597
     23  O         20.4470   37.1200   30.2380 O.2   356  ASP356     -0.2718
     24  CB        20.0430   36.8640   27.1620 C.3   356  ASP356      0.1424
     25  CG        20.6090   38.2260   26.8200 C.2   356  ASP356      0.3668
     26  OD1       20.1140   39.2370   27.3700 O.co2 356  ASP356     -0.2456
     27  OD2       21.5540   38.2750   26.0030 O.co2 356  ASP356     -0.2456
     28  N         22.4750   37.5220   29.3480 N.am  357  ALA357     -0.1979
     29  CA        22.9250   38.4030   30.4300 C.3   357  ALA357      0.1597
     30  C         22.5650   37.8490   31.8040 C.2   357  ALA357      0.2287
     31  O         22.2390   38.6000   32.7240 O.2   357  ALA357     -0.2864
     32  CB        22.3150   39.7850   30.2540 C.3   357  ALA357      0.0319
     33  N         24.3130   36.7530   34.2330 N.3   359  GLN359     -0.1231
     34  CA        25.1320   37.1520   35.3790 C.3   359  GLN359      0.1698
     35  C         24.5910   38.3910   36.1000 C.2   359  GLN359      0.2592
     36  O         24.8990   38.6130   37.2710 O.2   359  GLN359     -0.2718
     37  CB        26.5980   37.3890   34.9500 C.3   359  GLN359      0.0381
     38  CG        26.9300   38.7960   34.4260 C.3   359  GLN359      0.0905
     39  CD        28.3670   38.9180   33.8800 C.2   359  GLN359      0.2608
     40  OE1       28.7540   38.2180   32.9450 O.2   359  GLN359     -0.2717
     41  NE2       29.1500   39.8150   34.4650 N.am  359  GLN359     -0.0878
     42  N         23.7670   39.1760   35.4100 N.am  360  TYR360     -0.1976
     43  CA        23.2160   40.3970   35.9850 C.3   360  TYR360      0.1639
     44  C         21.8870   40.2530   36.7220 C.2   360  TYR360      0.2290
     45  O         21.6220   41.0060   37.6590 O.2   360  TYR360     -0.2864
     46  CB        23.0650   41.4550   34.8970 C.3   360  TYR360      0.0560
     47  CG        24.3120   41.6440   34.0730 C.ar  360  TYR360     -0.0198
     48  CD1       24.4890   40.9580   32.8680 C.ar  360  TYR360     -0.0009
     49  CD2       25.3360   42.4790   34.5130 C.ar  360  TYR360     -0.0009
     50  CE1       25.6590   41.0960   32.1270 C.ar  360  TYR360      0.0417
     51  CE2       26.5080   42.6270   33.7830 C.ar  360  TYR360      0.0417
     52  CZ        26.6680   41.9340   32.5920 C.ar  360  TYR360      0.1957
     53  OH        27.8460   42.0660   31.8830 O.3   360  TYR360     -0.2866
     54  N         24.5730   32.4820   29.6070 N.3   396  GLU396     -0.1245
     55  CA        25.5710   33.2130   28.8470 C.3   396  GLU396      0.1567
     56  C         26.5760   33.7460   29.8420 C.2   396  GLU396      0.2260
     57  O         26.1990   34.3390   30.8580 O.2   396  GLU396     -0.2867
     58  CB        24.9860   34.4050   28.0850 C.3   396  GLU396      0.0388
     59  CG        26.1020   35.2850   27.5030 C.3   396  GLU396      0.1160
     60  CD        25.6520   36.6740   27.0830 C.2   396  GLU396      0.3649
     61  OE1       24.7780   37.2590   27.7550 O.co2 396  GLU396     -0.2457
     62  OE2       26.2010   37.1960   26.0920 O.co2 396  GLU396     -0.2457
     63  N         31.0510   34.8720   29.6630 N.3   398  TRP398     -0.1227
     64  CA        32.3110   34.8660   28.9310 C.3   398  TRP398      0.1737
     65  C         33.5370   34.3680   29.6910 C.2   398  TRP398      0.2596
     66  O         34.5670   34.0930   29.0770 O.2   398  TRP398     -0.2718
     67  CB        32.5640   36.2670   28.3770 C.3   398  TRP398      0.0564
     68  CG        31.4440   36.7500   27.4710 C.ar  398  TRP398      0.0003
     69  CD1       30.1060   36.7530   27.7500 C.ar  398  TRP398      0.0946
     70  CD2       31.5770   37.3050   26.1570 C.ar  398  TRP398      0.0152
     71  NE1       29.4020   37.2730   26.6960 N.ar  398  TRP398     -0.2442
     72  CE2       30.2790   37.6220   25.7040 C.ar  398  TRP398      0.0810
     73  CE3       32.6700   37.5660   25.3170 C.ar  398  TRP398      0.0012
     74  CZ2       30.0400   38.1910   24.4500 C.ar  398  TRP398      0.0191
     75  CZ3       32.4340   38.1330   24.0640 C.ar  398  TRP398      0.0001
     76  CH2       31.1260   38.4380   23.6460 C.ar  398  TRP398      0.0015
     77  N         33.4320   34.2380   31.0130 N.am  399  GLY399     -0.1957
     78  CA        34.5660   33.7580   31.7900 C.3   399  GLY399      0.1869
     79  C         34.3350   32.3690   32.3530 C.2   399  GLY399      0.2309
     80  O         33.7440   31.5160   31.6940 O.2   399  GLY399     -0.2863
     81  N         38.9750   36.2780   19.9270 N.3   433  TYR433     -0.1227
     82  CA        37.7150   36.3210   19.1890 C.3   433  TYR433      0.1736
     83  C         37.2160   37.7090   18.7910 C.2   433  TYR433      0.2595
     84  O         36.1500   37.8360   18.1840 O.2   433  TYR433     -0.2718
     85  CB        36.6110   35.5450   19.9240 C.3   433  TYR433      0.0548
     86  CG        36.4380   35.8670   21.3920 C.ar  433  TYR433     -0.0200
     87  CD1       36.2080   37.1760   21.8250 C.ar  433  TYR433     -0.0009
     88  CD2       36.4880   34.8540   22.3530 C.ar  433  TYR433     -0.0009
     89  CE1       36.0310   37.4660   23.1840 C.ar  433  TYR433      0.0417
     90  CE2       36.3150   35.1290   23.7090 C.ar  433  TYR433      0.0417
     91  CZ        36.0870   36.4350   24.1200 C.ar  433  TYR433      0.1957
     92  OH        35.9170   36.7080   25.4620 O.3   433  TYR433     -0.2866
     93  N         37.9810   38.7470   19.1190 N.am  434  GLN434     -0.1979
     94  CA        37.6040   40.1070   18.7340 C.3   434  GLN434      0.1601
     95  C         38.6000   40.6030   17.6830 C.2   434  GLN434      0.2287
     96  O         38.6780   41.7940   17.3770 O.2   434  GLN434     -0.2864
     97  CB        37.5900   41.0380   19.9520 C.3   434  GLN434      0.0394
     98  CG        36.5630   40.6490   20.9980 C.3   434  GLN434      0.0908
     99  CD        35.1310   40.6760   20.4780 C.2   434  GLN434      0.2608
    100  OE1       34.8670   40.3630   19.3150 O.2   434  GLN434     -0.2717
    101  NE2       34.1950   41.0330   21.3530 N.am  434  GLN434     -0.0878
    102  N         28.0340   37.9670   18.9270 N.3   472  ASP472     -0.1239
    103  CA        28.6580   39.0620   19.6600 C.3   472  ASP472      0.1674
    104  C         30.1510   39.1940   19.4020 C.2   472  ASP472      0.2266
    105  O         30.7810   40.1290   19.8880 O.2   472  ASP472     -0.2867
    106  CB        28.4060   38.9280   21.1700 C.3   472  ASP472      0.1410
    107  CG        26.9410   39.1540   21.5490 C.2   472  ASP472      0.3668
    108  OD1       26.2160   39.7960   20.7590 O.co2 472  ASP472     -0.2456
    109  OD2       26.5200   38.7050   22.6410 O.co2 472  ASP472     -0.2456
@<TRIPOS>BOND
     1    96    95    2
     2    95    94    1
     3    84    83    2
     4    94    93    1
     5    94    97    1
     6    83    93   am
     7    83    82    1
     8   102   103    1
     9    82    85    1
    10    82    81    1
    11   100    99    2
    12   104   103    1
    13   104   105    2
    14   103   106    1
    15    85    86    1
    16    97    98    1
    17    99    98    1
    18    99   101   am
    19   108   107   ar
    20   106   107    1
    21    86    87   ar
    22    86    88   ar
    23   107   109   ar
    24    87    89   ar
    25    88    90   ar
    26    89    91   ar
    27    76    75   ar
    28    76    74   ar
    29    90    91   ar
    30    75    73   ar
    31    91    92    1
    32    74    72   ar
    33    73    70   ar
    34    72    70   ar
    35    72    71   ar
    36    27    25   ar
    37    62    60   ar
    38    70    68   ar
    39    71    69   ar
    40    25    24    1
    41    25    26   ar
    42    60    59    1
    43    60    61   ar
    44    24    21    1
    45     9    11   ar
    46     9     7   ar
    47    68    69   ar
    48    68    67    1
    49    59    58    1
    50    11    10   ar
    51     7     6   ar
    52    58    55    1
    53    21    20    1
    54    21    22    1
    55    67    64    1
    56    55    54    1
    57    55    56    1
    58    64    63    1
    59    64    65    1
    60    10     8   ar
    61     6     8   ar
    62     6     5    1
    63    66    65    2
    64    19    17    1
    65    22    28   am
    66    22    23    2
    67    28    29    1
    68     4     3    2
    69    15    14    2
    70    65    77   am
    71    16    17    1
    72    16    13    1
    73     5     2    1
    74    56    57    2
    75    32    29    1
    76    17    18    1
    77    14    13    1
    78    29    30    1
    79     3     2    1
    80     3    12   am
    81    13    12    1
    82     2     1    1
    83    77    78    1
    84    80    79    2
    85    78    79    1
    86    30    31    2
    87    53    52    1
    88    50    52   ar
    89    50    48   ar
    90    52    51   ar
    91    48    47   ar
    92    40    39    2
    93    51    49   ar
    94    39    38    1
    95    39    41   am
    96    47    49   ar
    97    47    46    1
    98    33    34    1
    99    38    37    1
   100    46    43    1
   101    37    34    1
   102    34    35    1
   103    42    43    1
   104    42    35   am
   105    43    44    1
   106    35    36    2
   107    44    45    2
