@<TRIPOS>MOLECULE
tmp/1uh3A00.pdb
 170 165 0 0 0
SMALL
GASTEIGER

@<TRIPOS>ATOM
      1  N         20.1180   48.8600   14.3100 N.3   182  SER182     -0.1217
      2  CA        19.2150   47.9940   15.0600 C.3   182  SER182      0.1889
      3  C         17.8760   47.8960   14.3490 C.2   182  SER182      0.2288
      4  O         17.0430   47.0540   14.6890 O.2   182  SER182     -0.2866
      5  CB        18.9820   48.5530   16.4650 C.3   182  SER182      0.2089
      6  OG        20.1830   48.5890   17.2100 O.3   182  SER182     -0.2183
      7  N         17.5160   42.4110   16.4590 N.3   221  HIS221     -0.1241
      8  CA        18.1020   41.3640   17.2910 C.3   221  HIS221      0.1621
      9  C         17.0320   40.9210   18.2820 C.2   221  HIS221      0.2264
     10  O         16.9640   39.7540   18.6750 O.2   221  HIS221     -0.2867
     11  CB        19.3420   41.8800   18.0320 C.3   221  HIS221      0.0745
     12  CG        19.1010   43.1160   18.8430 C.ar  221  HIS221      0.0817
     13  ND1       19.5720   44.3560   18.4670 N.ar  221  HIS221     -0.2268
     14  CD2       18.4450   43.3010   20.0130 C.ar  221  HIS221      0.1154
     15  CE1       19.2150   45.2520   19.3700 C.ar  221  HIS221      0.1986
     16  NE2       18.5310   44.6370   20.3180 N.ar  221  HIS221     -0.2212
     17  N         16.4970   41.8770   21.5500 N.3   223  TYR223     -0.1241
     18  CA        16.8200   41.6990   22.9630 C.3   223  TYR223      0.1605
     19  C         16.0880   42.7570   23.7860 C.2   223  TYR223      0.2264
     20  O         16.1910   42.7790   25.0100 O.2   223  TYR223     -0.2867
     21  CB        18.3310   41.7960   23.2060 C.3   223  TYR223      0.0534
     22  CG        19.0830   40.5390   22.8220 C.ar  223  TYR223     -0.0201
     23  CD1       19.5610   40.3550   21.5250 C.ar  223  TYR223     -0.0009
     24  CD2       19.2670   39.5050   23.7480 C.ar  223  TYR223     -0.0009
     25  CE1       20.2020   39.1740   21.1570 C.ar  223  TYR223      0.0417
     26  CE2       19.9040   38.3210   23.3900 C.ar  223  TYR223      0.0417
     27  CZ        20.3690   38.1610   22.0930 C.ar  223  TYR223      0.1957
     28  OH        20.9990   36.9920   21.7290 O.3   223  TYR223     -0.2866
     29  N         16.3940   42.0190   31.4990 N.3   267  HIS267     -0.1241
     30  CA        15.7580   43.2870   31.1860 C.3   267  HIS267      0.1621
     31  C         14.6720   43.1220   30.1410 C.2   267  HIS267      0.2264
     32  O         14.5250   42.0730   29.5160 O.2   267  HIS267     -0.2867
     33  CB        16.7870   44.2740   30.6460 C.3   267  HIS267      0.0745
     34  CG        17.6780   43.6860   29.5990 C.ar  267  HIS267      0.0817
     35  ND1       18.8480   43.0250   29.9060 N.ar  267  HIS267     -0.2268
     36  CD2       17.5240   43.5750   28.2580 C.ar  267  HIS267      0.1154
     37  CE1       19.3730   42.5290   28.8010 C.ar  267  HIS267      0.1986
     38  NE2       18.5880   42.8470   27.7860 N.ar  267  HIS267     -0.2212
     39  N         20.5790   47.4730   31.3700 N.3   310  PHE310     -0.1241
     40  CA        21.6240   46.5670   30.9370 C.3   310  PHE310      0.1605
     41  C         22.8020   47.4060   30.4360 C.2   310  PHE310      0.2264
     42  O         22.7140   48.0530   29.3930 O.2   310  PHE310     -0.2867
     43  CB        21.1120   45.6570   29.8180 C.3   310  PHE310      0.0534
     44  CG        22.2060   44.9690   29.0680 C.ar  310  PHE310     -0.0203
     45  CD1       22.7340   45.5390   27.9090 C.ar  310  PHE310     -0.0042
     46  CD2       22.7790   43.8000   29.5710 C.ar  310  PHE310     -0.0042
     47  CE1       23.8200   44.9660   27.2660 C.ar  310  PHE310     -0.0003
     48  CE2       23.8720   43.2110   28.9400 C.ar  310  PHE310     -0.0003
     49  CZ        24.3980   43.7970   27.7810 C.ar  310  PHE310     -0.0000
     50  N         22.4190   51.0260   28.7100 N.3   313  PHE313     -0.1241
     51  CA        21.5200   51.2600   27.5790 C.3   313  PHE313      0.1605
     52  C         20.0980   51.5520   28.0790 C.2   313  PHE313      0.2264
     53  O         19.4430   50.6880   28.6720 O.2   313  PHE313     -0.2867
     54  CB        21.5270   50.0400   26.6530 C.3   313  PHE313      0.0534
     55  CG        22.8580   49.7980   25.9840 C.ar  313  PHE313     -0.0203
     56  CD1       23.1610   50.3990   24.7620 C.ar  313  PHE313     -0.0042
     57  CD2       23.8280   49.0100   26.5990 C.ar  313  PHE313     -0.0042
     58  CE1       24.4150   50.2220   24.1630 C.ar  313  PHE313     -0.0003
     59  CE2       25.0860   48.8290   26.0070 C.ar  313  PHE313     -0.0003
     60  CZ        25.3780   49.4360   24.7880 C.ar  313  PHE313     -0.0000
     61  N         17.4150   51.8050   26.4910 N.3   315  SER315     -0.1202
     62  CA        16.3820   51.0500   25.7980 C.3   315  SER315      0.2020
     63  C         16.1540   49.6810   26.4390 C.2   315  SER315      0.2618
     64  O         15.1960   48.9770   26.0960 O.2   315  SER315     -0.2717
     65  CB        16.7640   50.8770   24.3270 C.3   315  SER315      0.2103
     66  OG        17.9960   50.1980   24.2140 O.3   315  SER315     -0.2182
     67  N         17.0220   49.3090   27.3780 N.am  316  LEU316     -0.1979
     68  CA        16.9090   48.0180   28.0470 C.3   316  LEU316      0.1596
     69  C         16.7920   48.1140   29.5770 C.2   316  LEU316      0.2287
     70  O         17.7070   47.7130   30.3100 O.2   316  LEU316     -0.2864
     71  CB        18.1110   47.1520   27.6690 C.3   316  LEU316      0.0297
     72  CG        18.2470   46.8500   26.1730 C.3   316  LEU316      0.0022
     73  CD1       19.5880   46.1930   25.9030 C.3   316  LEU316      0.0001
     74  CD2       17.1050   45.9570   25.7220 C.3   316  LEU316      0.0001
     75  N         18.3480   29.7780   26.6370 N.3   354  ARG354     -0.1245
     76  CA        19.6870   30.3670   26.6080 C.3   354  ARG354      0.1563
     77  C         19.5030   31.5890   27.5010 C.2   354  ARG354      0.2260
     78  O         18.7730   32.5090   27.1510 O.2   354  ARG354     -0.2867
     79  CB        20.0380   30.8140   25.1840 C.3   354  ARG354      0.0307
     80  CG        21.5200   30.9420   24.8380 C.3   354  ARG354      0.0489
     81  CD        22.2400   32.1880   25.3600 C.3   354  ARG354      0.2205
     82  NE        21.5450   33.4460   25.0960 N.pl3 354  ARG354     -0.0865
     83  CZ        22.1430   34.6390   24.9980 C.cat 354  ARG354      0.5346
     84  NH1       21.4170   35.7290   24.7740 N.pl3 354  ARG354      0.1354
     85  NH2       23.4670   34.7540   25.0840 N.pl3 354  ARG354      0.1354
     86  N         20.2510   34.8630   28.5390 N.3   356  ASP356     -0.1225
     87  CA        20.9310   36.0840   28.1320 C.3   356  ASP356      0.1805
     88  C         21.2680   36.9600   29.3370 C.2   356  ASP356      0.2597
     89  O         20.4470   37.1200   30.2380 O.2   356  ASP356     -0.2718
     90  CB        20.0430   36.8640   27.1620 C.3   356  ASP356      0.1424
     91  CG        20.6090   38.2260   26.8200 C.2   356  ASP356      0.3668
     92  OD1       20.1140   39.2370   27.3700 O.co2 356  ASP356     -0.2456
     93  OD2       21.5540   38.2750   26.0030 O.co2 356  ASP356     -0.2456
     94  N         22.4750   37.5220   29.3480 N.am  357  ALA357     -0.1979
     95  CA        22.9250   38.4030   30.4300 C.3   357  ALA357      0.1597
     96  C         22.5650   37.8490   31.8040 C.2   357  ALA357      0.2287
     97  O         22.2390   38.6000   32.7240 O.2   357  ALA357     -0.2864
     98  CB        22.3150   39.7850   30.2540 C.3   357  ALA357      0.0319
     99  N         24.5730   32.4820   29.6070 N.3   396  GLU396     -0.1245
    100  CA        25.5710   33.2130   28.8470 C.3   396  GLU396      0.1567
    101  C         26.5760   33.7460   29.8420 C.2   396  GLU396      0.2260
    102  O         26.1990   34.3390   30.8580 O.2   396  GLU396     -0.2867
    103  CB        24.9860   34.4050   28.0850 C.3   396  GLU396      0.0388
    104  CG        26.1020   35.2850   27.5030 C.3   396  GLU396      0.1160
    105  CD        25.6520   36.6740   27.0830 C.2   396  GLU396      0.3649
    106  OE1       24.7780   37.2590   27.7550 O.co2 396  GLU396     -0.2457
    107  OE2       26.2010   37.1960   26.0920 O.co2 396  GLU396     -0.2457
    108  N         31.0510   34.8720   29.6630 N.3   398  TRP398     -0.1241
    109  CA        32.3110   34.8660   28.9310 C.3   398  TRP398      0.1605
    110  C         33.5370   34.3680   29.6910 C.2   398  TRP398      0.2264
    111  O         34.5670   34.0930   29.0770 O.2   398  TRP398     -0.2867
    112  CB        32.5640   36.2670   28.3770 C.3   398  TRP398      0.0550
    113  CG        31.4440   36.7500   27.4710 C.ar  398  TRP398      0.0003
    114  CD1       30.1060   36.7530   27.7500 C.ar  398  TRP398      0.0946
    115  CD2       31.5770   37.3050   26.1570 C.ar  398  TRP398      0.0152
    116  NE1       29.4020   37.2730   26.6960 N.ar  398  TRP398     -0.2442
    117  CE2       30.2790   37.6220   25.7040 C.ar  398  TRP398      0.0810
    118  CE3       32.6700   37.5660   25.3170 C.ar  398  TRP398      0.0012
    119  CZ2       30.0400   38.1910   24.4500 C.ar  398  TRP398      0.0191
    120  CZ3       32.4340   38.1330   24.0640 C.ar  398  TRP398      0.0001
    121  CH2       31.1260   38.4380   23.6460 C.ar  398  TRP398      0.0015
    122  N         26.9480   35.7210   17.5710 N.3   471  HIS471     -0.1226
    123  CA        26.4460   37.0650   17.2990 C.3   471  HIS471      0.1752
    124  C         27.0810   38.2330   18.0440 C.2   471  HIS471      0.2596
    125  O         26.7040   39.3800   17.8200 O.2   471  HIS471     -0.2718
    126  CB        24.9400   37.1020   17.5340 C.3   471  HIS471      0.0759
    127  CG        24.5460   36.8550   18.9580 C.ar  471  HIS471      0.0818
    128  ND1       24.8360   35.6800   19.6190 N.ar  471  HIS471     -0.2268
    129  CD2       23.8610   37.6250   19.8400 C.ar  471  HIS471      0.1154
    130  CE1       24.3430   35.7360   20.8430 C.ar  471  HIS471      0.1986
    131  NE2       23.7460   36.9050   21.0030 N.ar  471  HIS471     -0.2212
    132  N         28.0340   37.9670   18.9270 N.am  472  ASP472     -0.1974
    133  CA        28.6580   39.0620   19.6600 C.3   472  ASP472      0.1709
    134  C         30.1510   39.1940   19.4020 C.2   472  ASP472      0.2293
    135  O         30.7810   40.1290   19.8880 O.2   472  ASP472     -0.2864
    136  CB        28.4060   38.9280   21.1700 C.3   472  ASP472      0.1436
    137  CG        26.9410   39.1540   21.5490 C.2   472  ASP472      0.3671
    138  OD1       26.2160   39.7960   20.7590 O.co2 472  ASP472     -0.2456
    139  OD2       26.5200   38.7050   22.6410 O.co2 472  ASP472     -0.2456
    140  N         32.9080   43.0380   13.7650 N.3   515  ALA515     -0.1231
    141  CA        32.1510   43.2670   14.9850 C.3   515  ALA515      0.1694
    142  C         30.6920   43.6200   14.6900 C.2   515  ALA515      0.2592
    143  O         30.3560   44.0770   13.5930 O.2   515  ALA515     -0.2718
    144  CB        32.8090   44.3830   15.8090 C.3   515  ALA515      0.0304
    145  N         29.8410   43.3920   15.6870 N.am  516  ASP516     -0.1960
    146  CA        28.4120   43.6790   15.6160 C.3   516  ASP516      0.1825
    147  C         28.2180   45.0280   14.9220 C.2   516  ASP516      0.2464
    148  O         28.8610   46.0100   15.2820 O.2   516  ASP516     -0.2730
    149  CB        27.8560   43.7120   17.0470 C.3   516  ASP516      0.1450
    150  CG        26.3520   43.8790   17.1020 C.2   516  ASP516      0.3671
    151  OD1       25.7910   43.7050   18.2020 O.co2 516  ASP516     -0.2456
    152  OD2       25.7250   44.1870   16.0690 O.co2 516  ASP516     -0.2456
    153  N         27.3070   45.1020   13.9370 N.am  517  PRO517     -0.2727
    154  CA        26.4280   44.0530   13.4090 C.3   517  PRO517      0.1402
    155  C         26.9490   43.2470   12.2220 C.2   517  PRO517      0.2269
    156  O         26.2380   42.3720   11.7200 O.2   517  PRO517     -0.2865
    157  CB        25.1900   44.8350   13.0240 C.3   517  PRO517      0.0296
    158  CG        25.8070   46.0670   12.4090 C.3   517  PRO517      0.0237
    159  CD        26.9030   46.4200   13.4090 C.3   517  PRO517      0.0939
    160  N         26.5040   39.4530   11.7080 N.3   520  ARG520     -0.1245
    161  CA        25.1460   38.9510   11.5840 C.3   520  ARG520      0.1563
    162  C         24.6360   39.0830   10.1460 C.2   520  ARG520      0.2260
    163  O         23.4680   39.3950    9.9140 O.2   520  ARG520     -0.2867
    164  CB        24.2300   39.7090   12.5570 C.3   520  ARG520      0.0307
    165  CG        24.3240   39.1950   13.9880 C.3   520  ARG520      0.0489
    166  CD        24.9030   40.1950   14.9920 C.3   520  ARG520      0.2205
    167  NE        23.8750   41.0340   15.6060 N.pl3 520  ARG520     -0.0865
    168  CZ        23.8560   41.3960   16.8880 C.cat 520  ARG520      0.5346
    169  NH1       24.8040   40.9970   17.7260 N.pl3 520  ARG520      0.1354
    170  NH2       22.8820   42.1740   17.3330 N.pl3 520  ARG520      0.1354
@<TRIPOS>BOND
     1   163   162    2
     2   162   161    1
     3   161   160    1
     4   161   164    1
     5   156   155    2
     6   155   154    1
     7   158   157    1
     8   158   159    1
     9   164   165    1
    10   157   154    1
    11   154   153    1
    12   159   153    1
    13   143   142    2
    14   140   141    1
    15   153   147   am
    16   165   166    1
    17     1     2    1
    18     3     4    2
    19     3     2    1
    20   142   141    1
    21   142   145   am
    22   147   148    2
    23   147   146    1
    24   141   144    1
    25   166   167    1
    26     2     5    1
    27   167   168    2
    28   146   145    1
    29   146   149    1
    30   152   150   ar
    31     7     8    1
    32     5     6    1
    33   168   170    1
    34   168   169    1
    35   149   150    1
    36   150   151   ar
    37     8    11    1
    38     8     9    1
    39   123   126    1
    40   123   122    1
    41   123   124    1
    42   126   127    1
    43   125   124    2
    44    11    12    1
    45   124   132   am
    46     9    10    2
    47    13    12   ar
    48    13    15   ar
    49    12    14   ar
    50   132   133    1
    51   127   128   ar
    52   127   129   ar
    53    15    16   ar
    54   134   133    1
    55   134   135    2
    56   128   130   ar
    57   133   136    1
    58   129   131   ar
    59    14    16   ar
    60   138   137   ar
    61   130   131   ar
    62    25    23   ar
    63    25    27   ar
    64   136   137    1
    65    23    22   ar
    66   137   139   ar
    67    17    18    1
    68    28    27    1
    69    27    26   ar
    70    22    21    1
    71    22    24   ar
    72    18    21    1
    73    18    19    1
    74    26    24   ar
    75   121   120   ar
    76   121   119   ar
    77    19    20    2
    78   120   118   ar
    79    58    56   ar
    80    58    60   ar
    81    66    65    1
    82    65    62    1
    83   119   117   ar
    84    56    55   ar
    85    84    83    1
    86    60    59   ar
    87    80    79    1
    88    80    81    1
    89    83    85    1
    90    83    82    2
    91    82    81    1
    92    79    76    1
    93   118   115   ar
    94   117   115   ar
    95   117   116   ar
    96    74    72    1
    97    62    63    1
    98    62    61    1
    99    73    72    1
   100    55    57   ar
   101    55    54    1
   102    93    91   ar
   103    59    57   ar
   104   107   105   ar
   105    64    63    2
   106   115   113   ar
   107    72    71    1
   108    63    67   am
   109    76    75    1
   110    76    77    1
   111    54    51    1
   112   116   114   ar
   113    91    90    1
   114    91    92   ar
   115   105   104    1
   116   105   106   ar
   117    78    77    2
   118    90    87    1
   119    47    49   ar
   120    47    45   ar
   121    67    68    1
   122   113   114   ar
   123   113   112    1
   124   104   103    1
   125    51    52    1
   126    51    50    1
   127    71    68    1
   128    49    48   ar
   129    38    36   ar
   130    38    37   ar
   131    45    44   ar
   132    68    69    1
   133    52    53    2
   134   103   100    1
   135    87    86    1
   136    87    88    1
   137    36    34   ar
   138   112   109    1
   139    37    35   ar
   140   100    99    1
   141   100   101    1
   142   109   108    1
   143   109   110    1
   144    48    46   ar
   145    44    46   ar
   146    44    43    1
   147   111   110    2
   148    88    94   am
   149    88    89    2
   150    94    95    1
   151    42    41    2
   152    32    31    2
   153    69    70    2
   154    34    35   ar
   155    34    33    1
   156    43    40    1
   157   101   102    2
   158    31    30    1
   159    98    95    1
   160    95    96    1
   161    41    40    1
   162    33    30    1
   163    40    39    1
   164    30    29    1
   165    96    97    2
