@<TRIPOS>MOLECULE
tmp/1uh4A00.pdb
 159 152 0 0 0
SMALL
GASTEIGER

@<TRIPOS>ATOM
      1  N         19.0930   53.2980   11.3040 N.3   180  ASP180     -0.1239
      2  CA        19.8780   52.7470   12.4080 C.3   180  ASP180      0.1674
      3  C         20.2420   51.2750   12.1750 C.2   180  ASP180      0.2266
      4  O         19.4480   50.5130   11.6270 O.2   180  ASP180     -0.2867
      5  CB        19.0870   52.8830   13.7140 C.3   180  ASP180      0.1410
      6  CG        19.9390   52.6360   14.9420 C.2   180  ASP180      0.3668
      7  OD1       20.7040   53.5420   15.3350 O.co2 180  ASP180     -0.2456
      8  OD2       19.8520   51.5300   15.5110 O.co2 180  ASP180     -0.2456
      9  N         20.3520   48.8160   14.1760 N.3   182  SER182     -0.1217
     10  CA        19.4580   47.9060   14.8890 C.3   182  SER182      0.1889
     11  C         18.0540   47.8790   14.2970 C.2   182  SER182      0.2288
     12  O         17.1800   47.1570   14.7870 O.2   182  SER182     -0.2866
     13  CB        19.3710   48.2940   16.3680 C.3   182  SER182      0.2089
     14  OG        20.6470   48.2640   16.9810 O.3   182  SER182     -0.2183
     15  N         17.4560   42.5130   16.3210 N.3   221  HIS221     -0.1241
     16  CA        18.0400   41.4760   17.1730 C.3   221  HIS221      0.1621
     17  C         17.0220   41.0320   18.2290 C.2   221  HIS221      0.2264
     18  O         17.0560   39.8970   18.7090 O.2   221  HIS221     -0.2867
     19  CB        19.3210   41.9840   17.8410 C.3   221  HIS221      0.0745
     20  CG        19.1280   43.2100   18.6770 C.ar  221  HIS221      0.0817
     21  ND1       19.4560   44.4740   18.2340 N.ar  221  HIS221     -0.2268
     22  CD2       18.6580   43.3630   19.9370 C.ar  221  HIS221      0.1154
     23  CE1       19.2010   45.3510   19.1870 C.ar  221  HIS221      0.1986
     24  NE2       18.7160   44.7030   20.2310 N.ar  221  HIS221     -0.2212
     25  N         16.4840   41.8720   21.4860 N.3   223  TYR223     -0.1241
     26  CA        16.8380   41.6330   22.8770 C.3   223  TYR223      0.1605
     27  C         16.1220   42.7000   23.7030 C.2   223  TYR223      0.2264
     28  O         16.1850   42.7000   24.9290 O.2   223  TYR223     -0.2867
     29  CB        18.3520   41.7150   23.0930 C.3   223  TYR223      0.0534
     30  CG        19.0760   40.4380   22.7330 C.ar  223  TYR223     -0.0201
     31  CD1       19.6170   40.2480   21.4610 C.ar  223  TYR223     -0.0009
     32  CD2       19.1790   39.3970   23.6540 C.ar  223  TYR223     -0.0009
     33  CE1       20.2440   39.0480   21.1140 C.ar  223  TYR223      0.0417
     34  CE2       19.7960   38.1990   23.3220 C.ar  223  TYR223      0.0417
     35  CZ        20.3260   38.0270   22.0540 C.ar  223  TYR223      0.1957
     36  OH        20.9210   36.8280   21.7300 O.3   223  TYR223     -0.2866
     37  N         16.3980   41.9860   31.5490 N.3   267  HIS267     -0.1241
     38  CA        15.7660   43.2550   31.2300 C.3   267  HIS267      0.1621
     39  C         14.7430   43.0800   30.1210 C.2   267  HIS267      0.2264
     40  O         14.6770   42.0310   29.4900 O.2   267  HIS267     -0.2867
     41  CB        16.8430   44.2140   30.7270 C.3   267  HIS267      0.0745
     42  CG        17.7360   43.6090   29.6850 C.ar  267  HIS267      0.0817
     43  ND1       18.9420   43.0140   29.9900 N.ar  267  HIS267     -0.2268
     44  CD2       17.5760   43.4660   28.3480 C.ar  267  HIS267      0.1154
     45  CE1       19.4860   42.5320   28.8870 C.ar  267  HIS267      0.1986
     46  NE2       18.6760   42.7920   27.8760 N.ar  267  HIS267     -0.2212
     47  N         20.6730   47.4150   31.3030 N.3   310  PHE310     -0.1241
     48  CA        21.7370   46.5240   30.8920 C.3   310  PHE310      0.1605
     49  C         22.8700   47.3870   30.3530 C.2   310  PHE310      0.2264
     50  O         22.7060   48.0860   29.3510 O.2   310  PHE310     -0.2867
     51  CB        21.2560   45.5600   29.8020 C.3   310  PHE310      0.0534
     52  CG        22.3620   44.7540   29.1820 C.ar  310  PHE310     -0.0203
     53  CD1       22.9350   45.1450   27.9730 C.ar  310  PHE310     -0.0042
     54  CD2       22.8720   43.6310   29.8350 C.ar  310  PHE310     -0.0042
     55  CE1       24.0050   44.4330   27.4230 C.ar  310  PHE310     -0.0003
     56  CE2       23.9390   42.9130   29.2980 C.ar  310  PHE310     -0.0003
     57  CZ        24.5080   43.3140   28.0890 C.ar  310  PHE310     -0.0000
     58  N         22.4680   50.9230   28.7820 N.3   313  PHE313     -0.1241
     59  CA        21.5810   51.1180   27.6350 C.3   313  PHE313      0.1605
     60  C         20.1710   51.4460   28.1260 C.2   313  PHE313      0.2264
     61  O         19.4860   50.5840   28.6750 O.2   313  PHE313     -0.2867
     62  CB        21.5370   49.8540   26.7790 C.3   313  PHE313      0.0534
     63  CG        22.7810   49.6250   25.9740 C.ar  313  PHE313     -0.0203
     64  CD1       23.0510   50.4030   24.8530 C.ar  313  PHE313     -0.0042
     65  CD2       23.6820   48.6270   26.3320 C.ar  313  PHE313     -0.0042
     66  CE1       24.2030   50.1900   24.0960 C.ar  313  PHE313     -0.0003
     67  CE2       24.8370   48.4040   25.5840 C.ar  313  PHE313     -0.0003
     68  CZ        25.0980   49.1890   24.4610 C.ar  313  PHE313     -0.0000
     69  N         17.6280   51.7480   26.5130 N.3   315  SER315     -0.1202
     70  CA        16.6330   50.9930   25.7620 C.3   315  SER315      0.2020
     71  C         16.3730   49.6280   26.4000 C.2   315  SER315      0.2618
     72  O         15.4530   48.9130   25.9980 O.2   315  SER315     -0.2717
     73  CB        17.0980   50.7990   24.3170 C.3   315  SER315      0.2103
     74  OG        18.3220   50.0870   24.2740 O.3   315  SER315     -0.2182
     75  N         17.1750   49.2780   27.4040 N.am  316  LEU316     -0.1979
     76  CA        17.0360   47.9880   28.0760 C.3   316  LEU316      0.1596
     77  C         16.8730   48.1010   29.5940 C.2   316  LEU316      0.2287
     78  O         17.7760   47.7410   30.3510 O.2   316  LEU316     -0.2864
     79  CB        18.2580   47.1160   27.7730 C.3   316  LEU316      0.0297
     80  CG        18.6140   46.9210   26.2960 C.3   316  LEU316      0.0022
     81  CD1       19.9710   46.2370   26.1880 C.3   316  LEU316      0.0001
     82  CD2       17.5320   46.0910   25.6090 C.3   316  LEU316      0.0001
     83  N         18.4290   29.5990   26.5150 N.3   354  ARG354     -0.1245
     84  CA        19.7850   30.1420   26.5390 C.3   354  ARG354      0.1563
     85  C         19.5440   31.4340   27.3260 C.2   354  ARG354      0.2260
     86  O         18.7500   32.2760   26.9050 O.2   354  ARG354     -0.2867
     87  CB        20.2790   30.4370   25.1180 C.3   354  ARG354      0.0307
     88  CG        21.6090   31.2000   25.0360 C.3   354  ARG354      0.0489
     89  CD        21.3920   32.7100   25.1640 C.3   354  ARG354      0.2205
     90  NE        22.6100   33.4800   24.9280 N.pl3 354  ARG354     -0.0865
     91  CZ        22.6460   34.8080   24.8570 C.cat 354  ARG354      0.5346
     92  NH1       21.5290   35.5080   25.0020 N.pl3 354  ARG354      0.1354
     93  NH2       23.7960   35.4380   24.6490 N.pl3 354  ARG354      0.1354
     94  N         20.2100   34.9590   28.4290 N.3   356  ASN356     -0.1225
     95  CA        20.8960   36.1930   28.0840 C.3   356  ASN356      0.1785
     96  C         21.3100   37.0030   29.3160 C.2   356  ASN356      0.2597
     97  O         20.5540   37.0930   30.2820 O.2   356  ASN356     -0.2718
     98  CB        19.9880   37.0520   27.2060 C.3   356  ASN356      0.1169
     99  CG        20.6670   38.3100   26.7500 C.2   356  ASN356      0.2627
    100  OD1       21.6190   38.2570   25.9770 O.2   356  ASN356     -0.2716
    101  ND2       20.1980   39.4510   27.2350 N.am  356  ASN356     -0.0877
    102  N         22.5110   37.5820   29.2730 N.am  357  ALA357     -0.1979
    103  CA        23.0270   38.4190   30.3600 C.3   357  ALA357      0.1597
    104  C         22.7060   37.8370   31.7310 C.2   357  ALA357      0.2287
    105  O         22.4080   38.5700   32.6810 O.2   357  ALA357     -0.2864
    106  CB        22.4370   39.8240   30.2440 C.3   357  ALA357      0.0319
    107  N         24.5850   32.5460   29.4600 N.3   396  GLN396     -0.1245
    108  CA        25.5820   33.3350   28.7510 C.3   396  GLN396      0.1566
    109  C         26.5630   33.8350   29.8000 C.2   396  GLN396      0.2260
    110  O         26.1510   34.3670   30.8300 O.2   396  GLN396     -0.2867
    111  CB        24.8860   34.5190   28.0650 C.3   396  GLN396      0.0367
    112  CG        25.7860   35.6690   27.6190 C.3   396  GLN396      0.0905
    113  CD        26.7220   35.2930   26.4900 C.2   396  GLN396      0.2608
    114  OE1       26.3790   34.4890   25.6250 O.2   396  GLN396     -0.2717
    115  NE2       27.9080   35.8950   26.4810 N.am  396  GLN396     -0.0878
    116  N         26.8840   35.8100   17.5130 N.3   471  HIS471     -0.1226
    117  CA        26.4110   37.1720   17.2660 C.3   471  HIS471      0.1752
    118  C         27.0690   38.3270   18.0260 C.2   471  HIS471      0.2596
    119  O         26.7690   39.4890   17.7490 O.2   471  HIS471     -0.2718
    120  CB        24.9020   37.2330   17.5010 C.3   471  HIS471      0.0759
    121  CG        24.5130   36.9480   18.9140 C.ar  471  HIS471      0.0818
    122  ND1       24.6970   35.7140   19.4980 N.ar  471  HIS471     -0.2268
    123  CD2       24.0010   37.7490   19.8770 C.ar  471  HIS471      0.1154
    124  CE1       24.3170   35.7680   20.7620 C.ar  471  HIS471      0.1986
    125  NE2       23.8910   36.9920   21.0170 N.ar  471  HIS471     -0.2212
    126  N         27.9520   38.0320   18.9750 N.am  472  ASP472     -0.1974
    127  CA        28.6050   39.0980   19.7360 C.3   472  ASP472      0.1709
    128  C         30.1060   39.2150   19.4920 C.2   472  ASP472      0.2293
    129  O         30.7770   40.0180   20.1370 O.2   472  ASP472     -0.2864
    130  CB        28.3780   38.9180   21.2390 C.3   472  ASP472      0.1436
    131  CG        26.9420   39.1550   21.6520 C.2   472  ASP472      0.3671
    132  OD1       26.2580   39.9770   21.0080 O.co2 472  ASP472     -0.2456
    133  OD2       26.5050   38.5290   22.6400 O.co2 472  ASP472     -0.2456
    134  N         29.8170   43.3080   15.6270 N.3   516  ASP516     -0.1225
    135  CA        28.3930   43.6210   15.5710 C.3   516  ASP516      0.1790
    136  C         28.2580   45.0030   14.9270 C.2   516  ASP516      0.2439
    137  O         28.9350   45.9450   15.3360 O.2   516  ASP516     -0.2733
    138  CB        27.8520   43.6330   17.0050 C.3   516  ASP516      0.1423
    139  CG        26.3740   43.9600   17.0890 C.2   516  ASP516      0.3668
    140  OD1       25.8740   44.0570   18.2280 O.co2 516  ASP516     -0.2456
    141  OD2       25.7120   44.1160   16.0460 O.co2 516  ASP516     -0.2456
    142  N         27.3520   45.1600   13.9480 N.am  517  PRO517     -0.2729
    143  CA        26.4190   44.1980   13.3510 C.3   517  PRO517      0.1401
    144  C         26.9340   43.3850   12.1660 C.2   517  PRO517      0.2269
    145  O         26.1970   42.5790   11.6010 O.2   517  PRO517     -0.2865
    146  CB        25.2580   45.0890   12.9410 C.3   517  PRO517      0.0296
    147  CG        25.9900   46.2850   12.3980 C.3   517  PRO517      0.0237
    148  CD        27.0780   46.5200   13.4430 C.3   517  PRO517      0.0939
    149  N         26.4700   39.5410   11.6120 N.3   520  ARG520     -0.1245
    150  CA        25.1030   39.0740   11.4080 C.3   520  ARG520      0.1563
    151  C         24.6670   39.2450    9.9500 C.2   520  ARG520      0.2260
    152  O         23.5230   39.6150    9.6640 O.2   520  ARG520     -0.2867
    153  CB        24.1700   39.8470   12.3460 C.3   520  ARG520      0.0307
    154  CG        24.6030   39.7470   13.8070 C.3   520  ARG520      0.0489
    155  CD        23.9450   40.7820   14.6990 C.3   520  ARG520      0.2205
    156  NE        24.4750   40.7180   16.0600 N.pl3 520  ARG520     -0.0865
    157  CZ        23.9730   41.3810   17.0970 C.cat 520  ARG520      0.5346
    158  NH1       22.9160   42.1690   16.9390 N.pl3 520  ARG520      0.1354
    159  NH2       24.5230   41.2520   18.2960 N.pl3 520  ARG520      0.1354
@<TRIPOS>BOND
     1   152   151    2
     2   151   150    1
     3     1     2    1
     4   150   149    1
     5   150   153    1
     6   145   144    2
     7     4     3    2
     8   144   143    1
     9     3     2    1
    10   153   154    1
    11   147   146    1
    12   147   148    1
    13     2     5    1
    14   146   143    1
    15   143   142    1
    16   148   142    1
    17     5     6    1
    18   154   155    1
    19   142   136   am
    20     9    10    1
    21    11    12    2
    22    11    10    1
    23   155   156    1
    24    10    13    1
    25   136   137    2
    26   136   135    1
    27     6     7   ar
    28     6     8   ar
    29   135   134    1
    30   135   138    1
    31   141   139   ar
    32   156   157    2
    33    15    16    1
    34    13    14    1
    35   158   157    1
    36   138   139    1
    37   139   140   ar
    38   157   159    1
    39    16    19    1
    40    16    17    1
    41   117   120    1
    42   117   116    1
    43   117   118    1
    44   120   121    1
    45   119   118    2
    46    19    20    1
    47   118   126   am
    48    17    18    2
    49    21    20   ar
    50    21    23   ar
    51    20    22   ar
    52   121   122   ar
    53   121   123   ar
    54   126   127    1
    55    23    24   ar
    56   128   127    1
    57   128   129    2
    58   122   124   ar
    59   127   130    1
    60   123   125   ar
    61    22    24   ar
    62   124   125   ar
    63   132   131   ar
    64    33    31   ar
    65    33    35   ar
    66   130   131    1
    67    31    30   ar
    68    25    26    1
    69   131   133   ar
    70    36    35    1
    71    35    34   ar
    72    30    29    1
    73    30    32   ar
    74    26    29    1
    75    26    27    1
    76    34    32   ar
    77    27    28    2
    78    66    68   ar
    79    66    64   ar
    80    74    73    1
    81    73    70    1
    82    68    67   ar
    83    93    91    1
    84    64    63   ar
    85    91    90    2
    86    91    92    1
    87    90    89    1
    88    88    87    1
    89    88    89    1
    90    87    84    1
    91    67    65   ar
    92    82    80    1
    93   114   113    2
    94    70    71    1
    95    70    69    1
    96    63    65   ar
    97    63    62    1
    98   100    99    2
    99    72    71    2
   100    81    80    1
   101    80    79    1
   102    71    75   am
   103   115   113   am
   104   113   112    1
   105    83    84    1
   106    84    85    1
   107    99    98    1
   108    99   101   am
   109    62    59    1
   110    86    85    2
   111    98    95    1
   112    75    76    1
   113    55    53   ar
   114    55    57   ar
   115   112   111    1
   116    59    60    1
   117    59    58    1
   118    79    76    1
   119    46    44   ar
   120    46    45   ar
   121    53    52   ar
   122   111   108    1
   123    76    77    1
   124    95    94    1
   125    95    96    1
   126    57    56   ar
   127    60    61    2
   128    44    42   ar
   129   108   107    1
   130   108   109    1
   131    45    43   ar
   132    52    51    1
   133    52    54   ar
   134   102    96   am
   135   102   103    1
   136    56    54   ar
   137    96    97    2
   138    50    49    2
   139    40    39    2
   140    77    78    2
   141    42    43   ar
   142    42    41    1
   143   109   110    2
   144    51    48    1
   145    39    38    1
   146   106   103    1
   147    49    48    1
   148   103   104    1
   149    41    38    1
   150    48    47    1
   151    38    37    1
   152   104   105    2
