@<TRIPOS>MOLECULE
tmp/1uh4A02.pdb
 89 82 0 0 0
SMALL
GASTEIGER

@<TRIPOS>ATOM
      1  N         40.7100   22.4880   41.4900 N.3   116  ASP116     -0.1239
      2  CA        40.6030   21.6760   40.2810 C.3   116  ASP116      0.1674
      3  C         40.4070   20.1830   40.5520 C.2   116  ASP116      0.2266
      4  O         40.7900   19.3370   39.7440 O.2   116  ASP116     -0.2867
      5  CB        41.8240   21.8890   39.3790 C.3   116  ASP116      0.1410
      6  CG        41.7410   23.1820   38.5810 C.2   116  ASP116      0.3668
      7  OD1       42.7090   23.5010   37.8590 O.co2 116  ASP116     -0.2456
      8  OD2       40.7050   23.8730   38.6690 O.co2 116  ASP116     -0.2456
      9  N         34.8030   32.0580   33.3850 N.3   400  ASN400     -0.1240
     10  CA        34.6510   30.7910   34.0970 C.3   400  ASN400      0.1653
     11  C         33.2750   30.7610   34.7550 C.2   400  ASN400      0.2266
     12  O         33.0370   31.4700   35.7320 O.2   400  ASN400     -0.2867
     13  CB        35.7470   30.6770   35.1640 C.3   400  ASN400      0.1155
     14  CG        35.6470   29.4020   35.9760 C.2   400  ASN400      0.2627
     15  OD1       34.7300   28.6040   35.7940 O.2   400  ASN400     -0.2716
     16  ND2       36.5930   29.2090   36.8880 N.am  400  ASN400     -0.0877
     17  N         35.3870   31.0710   27.0520 N.3   418  ASP418     -0.1239
     18  CA        36.6620   30.8590   27.7380 C.3   418  ASP418      0.1674
     19  C         37.3160   29.4860   27.5620 C.2   418  ASP418      0.2266
     20  O         38.5450   29.3810   27.5110 O.2   418  ASP418     -0.2867
     21  CB        36.4770   31.1510   29.2320 C.3   418  ASP418      0.1410
     22  CG        37.7940   31.3130   29.9630 C.2   418  ASP418      0.3668
     23  OD1       38.6130   32.1470   29.5180 O.co2 418  ASP418     -0.2456
     24  OD2       38.0120   30.6160   30.9770 O.co2 418  ASP418     -0.2456
     25  N         42.8220   31.7960   19.1920 N.3   426  GLU426     -0.1245
     26  CA        44.2300   32.1640   19.3200 C.3   426  GLU426      0.1567
     27  C         45.2040   31.1110   18.7870 C.2   426  GLU426      0.2260
     28  O         46.2500   31.4570   18.2440 O.2   426  GLU426     -0.2867
     29  CB        44.5410   32.5200   20.7790 C.3   426  GLU426      0.0388
     30  CG        43.6050   33.6070   21.3180 C.3   426  GLU426      0.1160
     31  CD        44.0830   34.2570   22.6070 C.2   426  GLU426      0.3649
     32  OE1       43.3290   35.0900   23.1540 O.co2 426  GLU426     -0.2457
     33  OE2       45.1990   33.9520   23.0740 O.co2 426  GLU426     -0.2457
     34  N         48.7500   31.5620   20.5450 N.3   440  ILE440     -0.1245
     35  CA        49.2610   30.5980   21.5080 C.3   440  ILE440      0.1561
     36  C         49.7910   29.3680   20.7870 C.2   440  ILE440      0.2260
     37  O         49.3380   29.0320   19.6940 O.2   440  ILE440     -0.2867
     38  CB        48.1780   30.1470   22.5260 C.3   440  ILE440      0.0252
     39  CG1       46.9590   29.5790   21.7940 C.3   440  ILE440      0.0019
     40  CG2       47.7830   31.3190   23.4140 C.3   440  ILE440      0.0019
     41  CD1       45.8580   29.0790   22.7340 C.3   440  ILE440      0.0001
     42  N         50.5300   25.4760   24.8540 N.3   444  GLN444     -0.1245
     43  CA        49.7000   26.4450   25.5700 C.3   444  GLN444      0.1566
     44  C         48.2190   26.1540   25.3340 C.2   444  GLN444      0.2260
     45  O         47.4070   26.2370   26.2530 O.2   444  GLN444     -0.2867
     46  CB        50.0280   27.8660   25.1160 C.3   444  GLN444      0.0367
     47  CG        51.4570   28.2960   25.4090 C.3   444  GLN444      0.0905
     48  CD        51.7590   29.6910   24.8990 C.2   444  GLN444      0.2608
     49  OE1       51.5250   30.0000   23.7300 O.2   444  GLN444     -0.2717
     50  NE2       52.2890   30.5420   25.7750 N.am  444  GLN444     -0.0878
     51  N         47.1710   23.1970   27.4380 N.3   447  SER447     -0.1202
     52  CA        47.0930   23.5890   28.8470 C.3   447  SER447      0.2020
     53  C         45.8380   24.4230   29.1340 C.2   447  SER447      0.2618
     54  O         45.1480   24.2160   30.1400 O.2   447  SER447     -0.2717
     55  CB        48.3430   24.3870   29.2260 C.3   447  SER447      0.2103
     56  OG        48.2560   24.8790   30.5520 O.3   447  SER447     -0.2182
     57  N         45.5550   25.3680   28.2430 N.am  448  TRP448     -0.1975
     58  CA        44.3900   26.2450   28.3610 C.3   448  TRP448      0.1640
     59  C         43.1180   25.3910   28.3850 C.2   448  TRP448      0.2290
     60  O         42.2650   25.5450   29.2640 O.2   448  TRP448     -0.2864
     61  CB        44.3600   27.2070   27.1630 C.3   448  TRP448      0.0576
     62  CG        43.3230   28.3100   27.2070 C.ar  448  TRP448      0.0006
     63  CD1       42.0240   28.2140   27.6310 C.ar  448  TRP448      0.0946
     64  CD2       43.4820   29.6470   26.7120 C.ar  448  TRP448      0.0152
     65  NE1       41.3690   29.4070   27.4270 N.ar  448  TRP448     -0.2442
     66  CE2       42.2400   30.3030   26.8640 C.ar  448  TRP448      0.0810
     67  CE3       44.5560   30.3530   26.1480 C.ar  448  TRP448      0.0012
     68  CZ2       42.0400   31.6330   26.4720 C.ar  448  TRP448      0.0191
     69  CZ3       44.3570   31.6800   25.7580 C.ar  448  TRP448      0.0001
     70  CH2       43.1090   32.3020   25.9230 C.ar  448  TRP448      0.0015
     71  N         42.8060   23.3120   31.6920 N.3   451  GLY451     -0.1210
     72  CA        42.4580   24.1460   32.8280 C.3   451  GLY451      0.1956
     73  C         41.0210   24.6280   32.8010 C.2   451  GLY451      0.2612
     74  O         40.4140   24.8320   33.8550 O.2   451  GLY451     -0.2717
     75  N         40.4730   24.8210   31.6040 N.am  452  THR452     -0.1952
     76  CA        39.0980   25.2770   31.4840 C.3   452  THR452      0.1897
     77  C         38.1190   24.1210   31.6520 C.2   452  THR452      0.2313
     78  O         37.0500   24.3020   32.2310 O.2   452  THR452     -0.2863
     79  CB        38.8560   26.0260   30.1500 C.3   452  THR452      0.1794
     80  OG1       39.3750   25.2660   29.0520 O.3   452  THR452     -0.2208
     81  CG2       39.5340   27.3850   30.1930 C.3   452  THR452      0.0378
     82  N         37.4090   23.4530   35.2050 N.3   455  ASN455     -0.1240
     83  CA        36.5590   24.4050   35.9230 C.3   455  ASN455      0.1653
     84  C         35.1630   23.8300   36.1060 C.2   455  ASN455      0.2266
     85  O         34.3840   24.3300   36.9170 O.2   455  ASN455     -0.2867
     86  CB        36.3800   25.7200   35.1440 C.3   455  ASN455      0.1155
     87  CG        37.6220   26.5730   35.1160 C.2   455  ASN455      0.2627
     88  OD1       38.4190   26.5670   36.0510 O.2   455  ASN455     -0.2716
     89  ND2       37.7760   27.3450   34.0440 N.am  455  ASN455     -0.0877
@<TRIPOS>BOND
     1    28    27    2
     2    27    26    1
     3    25    26    1
     4    26    29    1
     5    37    36    2
     6    34    35    1
     7    29    30    1
     8    36    35    1
     9    30    31    1
    10    35    38    1
    11    39    38    1
    12    39    41    1
    13    38    40    1
    14    31    33   ar
    15    31    32   ar
    16    49    48    2
    17    42    43    1
    18    48    47    1
    19    48    50   am
    20    46    47    1
    21    46    43    1
    22    44    43    1
    23    44    45    2
    24    69    70   ar
    25    69    67   ar
    26    70    68   ar
    27    67    64   ar
    28    68    66   ar
    29    64    66   ar
    30    64    62   ar
    31    66    65   ar
    32    17    18    1
    33    61    62    1
    34    61    58    1
    35    62    63   ar
    36    65    63   ar
    37    51    52    1
    38    20    19    2
    39    19    18    1
    40    18    21    1
    41    57    58    1
    42    57    53   am
    43    58    59    1
    44    59    60    2
    45    52    53    1
    46    52    55    1
    47    80    79    1
    48    53    54    2
    49    55    56    1
    50    21    22    1
    51    23    22   ar
    52    22    24   ar
    53    79    81    1
    54    79    76    1
    55    76    75    1
    56    76    77    1
    57    75    73   am
    58    77    78    2
    59    71    72    1
    60    73    72    1
    61    73    74    2
    62     9    10    1
    63    89    87   am
    64    10    11    1
    65    10    13    1
    66    11    12    2
    67    87    86    1
    68    87    88    2
    69    86    83    1
    70    13    14    1
    71    82    83    1
    72    15    14    2
    73    83    84    1
    74    14    16   am
    75    84    85    2
    76     7     6   ar
    77     6     8   ar
    78     6     5    1
    79     5     2    1
    80     4     3    2
    81     2     3    1
    82     2     1    1
