@<TRIPOS>MOLECULE
tmp/1uh4A01.pdb
 139 135 0 0 0
SMALL
GASTEIGER

@<TRIPOS>ATOM
      1  N         36.9630   15.5140   49.7200 N.3    51  TRP51      -0.1241
      2  CA        36.4030   16.4700   50.6550 C.3    51  TRP51       0.1605
      3  C         34.8930   16.2680   50.5990 C.2    51  TRP51       0.2264
      4  O         34.3000   16.2720   49.5210 O.2    51  TRP51      -0.2867
      5  CB        36.7650   17.8930   50.2140 C.3    51  TRP51       0.0550
      6  CG        36.1230   18.9710   51.0290 C.ar   51  TRP51       0.0003
      7  CD1       34.9080   19.5590   50.8070 C.ar   51  TRP51       0.0946
      8  CD2       36.6500   19.5710   52.2180 C.ar   51  TRP51       0.0152
      9  NE1       34.6460   20.4880   51.7870 N.ar   51  TRP51      -0.2442
     10  CE2       35.6980   20.5170   52.6660 C.ar   51  TRP51       0.0810
     11  CE3       37.8330   19.4020   52.9510 C.ar   51  TRP51       0.0012
     12  CZ2       35.8940   21.2940   53.8150 C.ar   51  TRP51       0.0191
     13  CZ3       38.0270   20.1750   54.0980 C.ar   51  TRP51       0.0001
     14  CH2       37.0600   21.1090   54.5150 C.ar   51  TRP51       0.0015
     15  N         38.1400   15.9910   55.0640 N.3    58  PHE58      -0.1241
     16  CA        38.7110   15.0810   54.0750 C.3    58  PHE58       0.1605
     17  C         38.5470   13.6380   54.5340 C.2    58  PHE58       0.2264
     18  O         38.6250   13.3460   55.7290 O.2    58  PHE58      -0.2867
     19  CB        40.2000   15.3570   53.8720 C.3    58  PHE58       0.0534
     20  CG        40.4910   16.5220   52.9750 C.ar   58  PHE58      -0.0203
     21  CD1       41.0650   17.6830   53.4840 C.ar   58  PHE58      -0.0042
     22  CD2       40.2270   16.4470   51.6090 C.ar   58  PHE58      -0.0042
     23  CE1       41.3780   18.7500   52.6490 C.ar   58  PHE58      -0.0003
     24  CE2       40.5360   17.5130   50.7630 C.ar   58  PHE58      -0.0003
     25  CZ        41.1140   18.6660   51.2850 C.ar   58  PHE58      -0.0000
     26  N         34.4290   16.3210   46.4530 N.3    89  TYR89      -0.1241
     27  CA        35.4720   16.6760   45.4980 C.3    89  TYR89       0.1605
     28  C         36.6490   15.7600   45.7890 C.2    89  TYR89       0.2264
     29  O         37.0920   15.6850   46.9290 O.2    89  TYR89      -0.2867
     30  CB        35.9160   18.1310   45.6900 C.3    89  TYR89       0.0534
     31  CG        34.7940   19.1420   45.7970 C.ar   89  TYR89      -0.0201
     32  CD1       34.3310   19.5710   47.0420 C.ar   89  TYR89      -0.0009
     33  CD2       34.2320   19.7100   44.6570 C.ar   89  TYR89      -0.0009
     34  CE1       33.3450   20.5470   47.1460 C.ar   89  TYR89       0.0417
     35  CE2       33.2430   20.6850   44.7470 C.ar   89  TYR89       0.0417
     36  CZ        32.8070   21.1010   45.9930 C.ar   89  TYR89       0.1957
     37  OH        31.8570   22.0890   46.0840 O.3    89  TYR89      -0.2866
     38  N         40.6320   13.8350   44.6610 N.3    91  ARG91      -0.1245
     39  CA        41.9430   13.8790   44.0160 C.3    91  ARG91       0.1563
     40  C         42.6190   12.5580   44.4050 C.2    91  ARG91       0.2260
     41  O         42.1440   11.8620   45.3080 O.2    91  ARG91      -0.2867
     42  CB        42.7710   15.0650   44.5390 C.3    91  ARG91       0.0307
     43  CG        43.1400   14.9530   46.0190 C.3    91  ARG91       0.0489
     44  CD        43.8340   16.2000   46.5610 C.3    91  ARG91       0.2205
     45  NE        42.9810   17.3890   46.5190 N.pl3  91  ARG91      -0.0865
     46  CZ        42.9650   18.3310   47.4560 C.cat  91  ARG91       0.5346
     47  NH1       43.7520   18.2260   48.5250 N.pl3  91  ARG91       0.1354
     48  NH2       42.1720   19.3880   47.3210 N.pl3  91  ARG91       0.1354
     49  N         45.0370   22.2140   45.5980 N.3   114  ASN114     -0.1225
     50  CA        43.9830   22.6220   46.5220 C.3   114  ASN114      0.1785
     51  C         42.7470   23.0820   45.7510 C.2   114  ASN114      0.2597
     52  O         41.7650   23.5440   46.3370 O.2   114  ASN114     -0.2718
     53  CB        44.4800   23.7380   47.4520 C.3   114  ASN114      0.1169
     54  CG        44.9440   24.9730   46.7000 C.2   114  ASN114      0.2627
     55  OD1       45.5920   25.8490   47.2750 O.2   114  ASN114     -0.2716
     56  ND2       44.6140   25.0540   45.4180 N.am  114  ASN114     -0.0877
     57  N         42.8130   22.9420   44.4310 N.am  115  ALA115     -0.1966
     58  CA        41.7180   23.3140   43.5430 C.3   115  ALA115      0.1728
     59  C         41.7500   22.4040   42.3150 C.2   115  ALA115      0.2616
     60  O         42.7020   21.6470   42.1220 O.2   115  ALA115     -0.2715
     61  CB        41.8570   24.7680   43.1170 C.3   115  ALA115      0.0334
     62  N         40.7100   22.4880   41.4900 N.am  116  ASP116     -0.1957
     63  CA        40.6030   21.6760   40.2810 C.3   116  ASP116      0.1840
     64  C         40.4070   20.1830   40.5520 C.2   116  ASP116      0.2622
     65  O         40.7900   19.3370   39.7440 O.2   116  ASP116     -0.2715
     66  CB        41.8240   21.8890   39.3790 C.3   116  ASP116      0.1450
     67  CG        41.7410   23.1820   38.5810 C.2   116  ASP116      0.3671
     68  OD1       42.7090   23.5010   37.8590 O.co2 116  ASP116     -0.2456
     69  OD2       40.7050   23.8730   38.6690 O.co2 116  ASP116     -0.2456
     70  N         39.8030   19.8650   41.6920 N.am  117  ASP117     -0.1971
     71  CA        39.5230   18.4730   42.0440 C.3   117  ASP117      0.1709
     72  C         38.3740   17.9840   41.1650 C.2   117  ASP117      0.2293
     73  O         37.6940   18.7900   40.5320 O.2   117  ASP117     -0.2864
     74  CB        39.1040   18.3800   43.5130 C.3   117  ASP117      0.1436
     75  CG        40.2780   18.5200   44.4600 C.2   117  ASP117      0.3671
     76  OD1       40.0600   18.9320   45.6200 O.co2 117  ASP117     -0.2456
     77  OD2       41.4120   18.2010   44.0410 O.co2 117  ASP117     -0.2456
     78  N         34.6560   16.4150   40.4610 N.3   119  TYR119     -0.1241
     79  CA        33.3640   16.6310   41.1050 C.3   119  TYR119      0.1605
     80  C         32.4240   15.4440   41.1750 C.2   119  TYR119      0.2264
     81  O         32.3020   14.6620   40.2350 O.2   119  TYR119     -0.2867
     82  CB        32.5820   17.7240   40.3730 C.3   119  TYR119      0.0534
     83  CG        33.2050   19.0920   40.3630 C.ar  119  TYR119     -0.0201
     84  CD1       32.8040   20.0610   41.2790 C.ar  119  TYR119     -0.0009
     85  CD2       34.1730   19.4340   39.4170 C.ar  119  TYR119     -0.0009
     86  CE1       33.3440   21.3380   41.2560 C.ar  119  TYR119      0.0417
     87  CE2       34.7250   20.7140   39.3850 C.ar  119  TYR119      0.0417
     88  CZ        34.3030   21.6580   40.3090 C.ar  119  TYR119      0.1957
     89  OH        34.8370   22.9230   40.3020 O.3   119  TYR119     -0.2866
     90  N         34.8030   32.0580   33.3850 N.3   400  ASN400     -0.1240
     91  CA        34.6510   30.7910   34.0970 C.3   400  ASN400      0.1653
     92  C         33.2750   30.7610   34.7550 C.2   400  ASN400      0.2266
     93  O         33.0370   31.4700   35.7320 O.2   400  ASN400     -0.2867
     94  CB        35.7470   30.6770   35.1640 C.3   400  ASN400      0.1155
     95  CG        35.6470   29.4020   35.9760 C.2   400  ASN400      0.2627
     96  OD1       34.7300   28.6040   35.7940 O.2   400  ASN400     -0.2716
     97  ND2       36.5930   29.2090   36.8880 N.am  400  ASN400     -0.0877
     98  N         31.9170   28.4870   36.5340 N.3   402  ASN402     -0.1226
     99  CA        31.8420   27.5540   37.6520 C.3   402  ASN402      0.1770
    100  C         30.8010   27.9750   38.7050 C.2   402  ASN402      0.2439
    101  O         30.0700   27.1360   39.2290 O.2   402  ASN402     -0.2733
    102  CB        33.2330   27.4080   38.2950 C.3   402  ASN402      0.1168
    103  CG        33.2180   26.5330   39.5380 C.2   402  ASN402      0.2627
    104  OD1       32.6950   26.9280   40.5820 O.2   402  ASN402     -0.2716
    105  ND2       33.7870   25.3350   39.4290 N.am  402  ASN402     -0.0877
    106  N         30.7010   29.2830   39.0130 N.am  403  PRO403     -0.2729
    107  CA        29.7290   29.7430   40.0190 C.3   403  PRO403      0.1401
    108  C         28.2600   29.4290   39.7440 C.2   403  PRO403      0.2269
    109  O         27.4490   29.3770   40.6770 O.2   403  PRO403     -0.2865
    110  CB        29.9860   31.2490   40.0850 C.3   403  PRO403      0.0296
    111  CG        31.4500   31.3490   39.7620 C.3   403  PRO403      0.0237
    112  CD        31.5840   30.3900   38.6010 C.3   403  PRO403      0.0939
    113  N         28.9170   24.4860   39.0400 N.3   406  ALA406     -0.1231
    114  CA        29.5490   23.5170   39.9320 C.3   406  ALA406      0.1694
    115  C         28.8670   23.0590   41.2190 C.2   406  ALA406      0.2591
    116  O         29.4930   22.3800   42.0330 O.2   406  ALA406     -0.2718
    117  CB        30.9730   23.9790   40.2430 C.3   406  ALA406      0.0304
    118  N         27.6080   23.4240   41.4250 N.am  407  GLN407     -0.1979
    119  CA        26.8960   22.9550   42.6080 C.3   407  GLN407      0.1601
    120  C         25.6410   22.2200   42.1560 C.2   407  GLN407      0.2287
    121  O         24.8130   21.8090   42.9670 O.2   407  GLN407     -0.2864
    122  CB        26.5510   24.1170   43.5380 C.3   407  GLN407      0.0394
    123  CG        27.7900   24.8150   44.0740 C.3   407  GLN407      0.0908
    124  CD        27.4900   25.7420   45.2280 C.2   407  GLN407      0.2608
    125  OE1       27.4070   25.3130   46.3800 O.2   407  GLN407     -0.2717
    126  NE2       27.3130   27.0190   44.9260 N.am  407  GLN407     -0.0878
    127  N         38.6680   21.6520   33.5380 N.3   454  ALA454     -0.1231
    128  CA        38.7410   21.4150   34.9800 C.3   454  ALA454      0.1694
    129  C         37.8920   22.3740   35.8170 C.2   454  ALA454      0.2592
    130  O         37.6850   22.1420   37.0100 O.2   454  ALA454     -0.2718
    131  CB        40.1980   21.4600   35.4450 C.3   454  ALA454      0.0304
    132  N         37.4090   23.4530   35.2050 N.am  455  ASN455     -0.1974
    133  CA        36.5590   24.4050   35.9230 C.3   455  ASN455      0.1688
    134  C         35.1630   23.8300   36.1060 C.2   455  ASN455      0.2292
    135  O         34.3840   24.3300   36.9170 O.2   455  ASN455     -0.2864
    136  CB        36.3800   25.7200   35.1440 C.3   455  ASN455      0.1181
    137  CG        37.6220   26.5730   35.1160 C.2   455  ASN455      0.2629
    138  OD1       38.4190   26.5670   36.0510 O.2   455  ASN455     -0.2716
    139  ND2       37.7760   27.3450   34.0440 N.am  455  ASN455     -0.0877
@<TRIPOS>BOND
     1    90    91    1
     2   127   128    1
     3   139   137   am
     4    91    92    1
     5    91    94    1
     6    92    93    2
     7   128   131    1
     8   128   129    1
     9   137   136    1
    10   137   138    2
    11   136   133    1
    12    94    95    1
    13   132   129   am
    14   132   133    1
    15    96    95    2
    16   129   130    2
    17   133   134    1
    18    95    97   am
    19   134   135    2
    20    98    99    1
    21    99   102    1
    22    99   100    1
    23    68    67   ar
    24   102   103    1
    25    67    69   ar
    26    67    66    1
    27   112   106    1
    28   112   111    1
    29   100   106   am
    30   100   101    2
    31   106   107    1
    32   113   114    1
    33    66    63    1
    34    87    85   ar
    35    87    88   ar
    36    85    83   ar
    37   105   103   am
    38   103   104    2
    39    65    64    2
    40   108   107    1
    41   108   109    2
    42   111   110    1
    43   114   117    1
    44   114   115    1
    45   107   110    1
    46    81    80    2
    47    63    64    1
    48    63    62    1
    49    89    88    1
    50    88    86   ar
    51    83    82    1
    52    83    84   ar
    53    82    79    1
    54    78    79    1
    55    73    72    2
    56    64    70   am
    57    79    80    1
    58    72    71    1
    59   115   118   am
    60   115   116    2
    61    86    84   ar
    62   118   119    1
    63    62    59   am
    64    70    71    1
    65    71    74    1
    66    60    59    2
    67   120   119    1
    68   120   121    2
    69    59    58    1
    70   119   122    1
    71    61    58    1
    72    74    75    1
    73   122   123    1
    74    58    57    1
    75    39    40    1
    76    39    42    1
    77    39    38    1
    78    77    75   ar
    79   123   124    1
    80    40    41    2
    81    57    51   am
    82    75    76   ar
    83    42    43    1
    84    33    35   ar
    85    33    31   ar
    86    35    36   ar
    87   126   124   am
    88   124   125    2
    89    56    54   am
    90    27    30    1
    91    27    28    1
    92    27    26    1
    93    49    50    1
    94    30    31    1
    95    51    52    2
    96    51    50    1
    97    28    29    2
    98    31    32   ar
    99    36    37    1
   100    36    34   ar
   101    43    44    1
   102    45    44    1
   103    45    46    2
   104    50    53    1
   105    54    55    2
   106    54    53    1
   107    32    34   ar
   108    48    46    1
   109    46    47    1
   110     4     3    2
   111     1     2    1
   112     5     2    1
   113     5     6    1
   114     3     2    1
   115    24    25   ar
   116    24    22   ar
   117     7     6   ar
   118     7     9   ar
   119     6     8   ar
   120    25    23   ar
   121    22    20   ar
   122     9    10   ar
   123     8    10   ar
   124     8    11   ar
   125    23    21   ar
   126    10    12   ar
   127    11    13   ar
   128    20    21   ar
   129    20    19    1
   130    12    14   ar
   131    19    16    1
   132    16    17    1
   133    16    15    1
   134    13    14   ar
   135    17    18    2
