@<TRIPOS>MOLECULE
tmp/1uhbB00.pdb
 155 156 0 0 0
SMALL
GASTEIGER

@<TRIPOS>ATOM
      1  N         15.7090   -6.2850   44.1100 N.3     6  TYR6       -0.1228
      2  CA        14.8940   -7.2820   44.7950 C.3     6  TYR6        0.1721
      3  C         13.7390   -7.7660   43.9330 C.2     6  TYR6        0.2437
      4  O         12.8550   -6.9980   43.5640 O.2     6  TYR6       -0.2733
      5  CB        14.3750   -6.7050   46.1090 C.3     6  TYR6        0.0547
      6  CG        15.5050   -6.4090   47.0510 C.ar    6  TYR6       -0.0200
      7  CD1       15.9490   -7.3670   47.9660 C.ar    6  TYR6       -0.0009
      8  CD2       16.2100   -5.2130   46.9510 C.ar    6  TYR6       -0.0009
      9  CE1       17.0700   -7.1400   48.7470 C.ar    6  TYR6        0.0417
     10  CE2       17.3290   -4.9780   47.7220 C.ar    6  TYR6        0.0417
     11  CZ        17.7570   -5.9430   48.6130 C.ar    6  TYR6        0.1957
     12  OH        18.8950   -5.7090   49.3380 O.3     6  TYR6       -0.2866
     13  N         13.7330   -9.0660   43.6120 N.am    7  PRO7       -0.2729
     14  CA        12.6950   -9.6800   42.7860 C.3     7  PRO7        0.1401
     15  C         11.3590   -9.8170   43.5040 C.2     7  PRO7        0.2269
     16  O         11.2960   -9.8200   44.7330 O.2     7  PRO7       -0.2865
     17  CB        13.2980  -11.0340   42.4530 C.3     7  PRO7        0.0296
     18  CG        13.9770  -11.3880   43.7440 C.3     7  PRO7        0.0237
     19  CD        14.6730  -10.0880   44.1120 C.3     7  PRO7        0.0939
     20  N         37.3260  -19.1850   54.4750 N.3    27  TYR27      -0.1241
     21  CA        37.1680  -18.3330   55.6550 C.3    27  TYR27       0.1605
     22  C         37.9990  -18.9030   56.8030 C.2    27  TYR27       0.2264
     23  O         37.4760  -19.5950   57.6730 O.2    27  TYR27      -0.2867
     24  CB        35.7050  -18.2730   56.0870 C.3    27  TYR27       0.0534
     25  CG        34.7410  -17.7850   55.0370 C.ar   27  TYR27      -0.0201
     26  CD1       34.4670  -16.4230   54.8860 C.ar   27  TYR27      -0.0009
     27  CD2       34.0860  -18.6850   54.2060 C.ar   27  TYR27      -0.0009
     28  CE1       33.5530  -15.9730   53.9300 C.ar   27  TYR27       0.0417
     29  CE2       33.1730  -18.2470   53.2470 C.ar   27  TYR27       0.0417
     30  CZ        32.9110  -16.8970   53.1160 C.ar   27  TYR27       0.1957
     31  OH        32.0050  -16.4810   52.1780 O.3    27  TYR27      -0.2866
     32  N         25.1410  -17.4090   44.0640 N.3    46  ASP46      -0.1225
     33  CA        25.1420  -17.4410   45.5210 C.3    46  ASP46       0.1805
     34  C         23.8590  -16.8700   46.1150 C.2    46  ASP46       0.2598
     35  O         23.0760  -16.2180   45.4200 O.2    46  ASP46      -0.2718
     36  CB        26.3320  -16.6070   46.0050 C.3    46  ASP46       0.1424
     37  CG        26.6970  -16.8640   47.4500 C.2    46  ASP46       0.3668
     38  OD1       27.5920  -16.1520   47.9330 O.co2  46  ASP46      -0.2456
     39  OD2       26.1180  -17.7650   48.0950 O.co2  46  ASP46      -0.2456
     40  N         23.6460  -17.1210   47.4050 N.am   47  SER47      -0.1938
     41  CA        22.4860  -16.5680   48.0830 C.3    47  SER47       0.2055
     42  C         22.9390  -15.1700   48.4930 C.2    47  SER47       0.2643
     43  O         24.1380  -14.8920   48.5420 O.2    47  SER47      -0.2714
     44  CB        22.0970  -17.4090   49.3070 C.3    47  SER47       0.2130
     45  OG        23.1750  -17.5710   50.2090 O.3    47  SER47      -0.2179
     46  N         21.9940  -14.2850   48.7770 N.am   48  CYS48      -0.1953
     47  CA        22.3570  -12.9220   49.1270 C.3    48  CYS48       0.1843
     48  C         21.4100  -12.3290   50.1620 C.2    48  CYS48       0.2625
     49  O         20.4690  -12.9880   50.6130 O.2    48  CYS48      -0.2714
     50  CB        22.3550  -12.0740   47.8470 C.3    48  CYS48       0.0997
     51  SG        23.1990  -10.4680   47.9550 S.3    48  CYS48      -0.0797
     52  N         21.6730  -11.0850   50.5430 N.am   49  GLN49      -0.1963
     53  CA        20.8380  -10.3970   51.5170 C.3    49  GLN49       0.1733
     54  C         19.3880  -10.5140   51.0610 C.2    49  GLN49       0.2616
     55  O         19.0740  -10.2480   49.9000 O.2    49  GLN49      -0.2715
     56  CB        21.2320   -8.9240   51.6090 C.3    49  GLN49       0.0408
     57  CG        22.5820   -8.6340   52.2720 C.3    49  GLN49       0.0908
     58  CD        23.7720   -9.2140   51.5230 C.2    49  GLN49       0.2608
     59  OE1       23.9210  -10.4250   51.4180 O.2    49  GLN49      -0.2717
     60  NE2       24.6300   -8.3440   51.0060 N.am   49  GLN49      -0.0878
     61  N         18.5100  -10.9120   51.9760 N.am   50  GLY50      -0.1955
     62  CA        17.1130  -11.0790   51.6280 C.3    50  GLY50       0.1869
     63  C         16.7450  -12.5520   51.5650 C.2    50  GLY50       0.2309
     64  O         15.5960  -12.9210   51.7990 O.2    50  GLY50      -0.2863
     65  N         18.2790  -14.6810   53.4530 N.3    52  SER52      -0.1217
     66  CA        18.5540  -15.1320   54.8170 C.3    52  SER52       0.1889
     67  C         17.4000  -15.8710   55.4670 C.2    52  SER52       0.2288
     68  O         16.2530  -15.4550   55.3660 O.2    52  SER52      -0.2866
     69  CB        18.9310  -13.9430   55.7040 C.3    52  SER52       0.2089
     70  OG        20.2710  -13.5740   55.4830 O.3    52  SER52      -0.2183
     71  N         20.1390  -20.3610   54.9270 N.3    66  VAL66      -0.1231
     72  CA        20.9230  -19.2110   54.4700 C.3    66  VAL66       0.1692
     73  C         21.3380  -18.4400   55.7260 C.2    66  VAL66       0.2593
     74  O         20.4850  -17.9650   56.4800 O.2    66  VAL66      -0.2718
     75  CB        20.0840  -18.2870   53.5560 C.3    66  VAL66       0.0266
     76  CG1       20.9610  -17.1770   52.9780 C.3    66  VAL66       0.0020
     77  CG2       19.4530  -19.0960   52.4440 C.3    66  VAL66       0.0020
     78  N         22.6420  -18.3280   55.9550 N.am   67  SER67      -0.1938
     79  CA        23.1450  -17.6580   57.1500 C.3    67  SER67       0.2055
     80  C         24.0350  -16.4490   56.8960 C.2    67  SER67       0.2643
     81  O         23.6630  -15.3250   57.2190 O.2    67  SER67      -0.2714
     82  CB        23.9060  -18.6600   58.0230 C.3    67  SER67       0.2130
     83  OG        24.3430  -18.0560   59.2230 O.3    67  SER67      -0.2179
     84  N         25.2250  -16.6750   56.3480 N.am   68  TRP68      -0.1959
     85  CA        26.1240  -15.5600   56.0860 C.3    68  TRP68       0.1771
     86  C         27.1100  -15.8180   54.9600 C.2    68  TRP68       0.2620
     87  O         27.0210  -16.8150   54.2470 O.2    68  TRP68      -0.2715
     88  CB        26.9000  -15.1660   57.3610 C.3    68  TRP68       0.0590
     89  CG        27.8250  -16.2270   57.9110 C.ar   68  TRP68       0.0006
     90  CD1       27.4730  -17.3290   58.6400 C.ar   68  TRP68       0.0946
     91  CD2       29.2540  -16.2780   57.7750 C.ar   68  TRP68       0.0152
     92  NE1       28.5950  -18.0630   58.9700 N.ar   68  TRP68      -0.2442
     93  CE2       29.7000  -17.4440   58.4490 C.ar   68  TRP68       0.0810
     94  CE3       30.2000  -15.4560   57.1460 C.ar   68  TRP68       0.0012
     95  CZ2       31.0510  -17.8090   58.5100 C.ar   68  TRP68       0.0191
     96  CZ3       31.5470  -15.8160   57.2080 C.ar   68  TRP68       0.0001
     97  CH2       31.9570  -16.9890   57.8880 C.ar   68  TRP68       0.0015
     98  N         28.0500  -14.8900   54.8200 N.am   69  GLY69      -0.1940
     99  CA        29.0770  -14.9800   53.8010 C.3    69  GLY69       0.2014
    100  C         29.7200  -13.6130   53.6900 C.2    69  GLY69       0.2639
    101  O         29.3370  -12.6940   54.4150 O.2    69  GLY69      -0.2714
    102  N         30.7050  -13.4660   52.8120 N.am   70  TYR70      -0.1959
    103  CA        31.3380  -12.1640   52.6360 C.3    70  TYR70       0.1771
    104  C         30.8050  -11.5860   51.3270 C.2    70  TYR70       0.2620
    105  O         31.2500  -11.9580   50.2440 O.2    70  TYR70      -0.2715
    106  CB        32.8650  -12.3130   52.6010 C.3    70  TYR70       0.0574
    107  CG        33.6170  -11.0030   52.4690 C.ar   70  TYR70      -0.0198
    108  CD1       33.8510  -10.4340   51.2150 C.ar   70  TYR70      -0.0009
    109  CD2       34.0880  -10.3270   53.5960 C.ar   70  TYR70      -0.0009
    110  CE1       34.5360   -9.2270   51.0850 C.ar   70  TYR70       0.0417
    111  CE2       34.7740   -9.1160   53.4770 C.ar   70  TYR70       0.0417
    112  CZ        34.9940   -8.5750   52.2170 C.ar   70  TYR70       0.1957
    113  OH        35.6760   -7.3870   52.0790 O.3    70  TYR70      -0.2866
    114  N         29.8310  -10.6880   51.4340 N.am   71  GLY71      -0.1940
    115  CA        29.2410  -10.1040   50.2430 C.3    71  GLY71       0.2014
    116  C         28.3560  -11.1170   49.5340 C.2    71  GLY71       0.2639
    117  O         27.8120  -12.0200   50.1600 O.2    71  GLY71      -0.2714
    118  N         28.2120  -10.9840   48.2230 N.am   72  CYS72      -0.1967
    119  CA        27.3850  -11.9180   47.4680 C.3    72  CYS72       0.1712
    120  C         28.0180  -12.3330   46.1560 C.2    72  CYS72       0.2296
    121  O         28.3460  -11.4890   45.3220 O.2    72  CYS72      -0.2864
    122  CB        26.0120  -11.3070   47.1730 C.3    72  CYS72       0.0983
    123  SG        25.0410  -10.9470   48.6620 S.3    72  CYS72      -0.0798
    124  N         34.5090  -16.8830   47.7960 N.3    77  LYS77      -0.1245
    125  CA        33.6910  -16.4980   48.9430 C.3    77  LYS77       0.1561
    126  C         32.2840  -17.1000   48.8360 C.2    77  LYS77       0.2260
    127  O         31.3000  -16.3870   48.6510 O.2    77  LYS77      -0.2867
    128  CB        33.5970  -14.9700   49.0540 C.3    77  LYS77       0.0271
    129  CG        34.5910  -14.3460   50.0280 C.3    77  LYS77       0.0035
    130  CD        36.0270  -14.4090   49.5290 C.3    77  LYS77       0.0206
    131  CE        36.2800  -13.3820   48.4220 C.3    77  LYS77       0.1093
    132  NZ        37.7000  -13.3920   47.9290 N.3    77  LYS77      -0.1314
    133  N         28.7160  -18.9070   49.9520 N.3    79  GLY79      -0.1210
    134  CA        27.8400  -18.6880   51.0860 C.3    79  GLY79       0.1956
    135  C         28.0400  -19.7670   52.1280 C.2    79  GLY79       0.2612
    136  O         28.4630  -20.8740   51.8120 O.2    79  GLY79      -0.2717
    137  N         27.7600  -19.4330   53.3810 N.am   80  VAL80      -0.1965
    138  CA        27.8930  -20.3860   54.4710 C.3    80  VAL80       0.1727
    139  C         26.5100  -20.5540   55.0730 C.2    80  VAL80       0.2616
    140  O         25.7690  -19.5850   55.2450 O.2    80  VAL80      -0.2715
    141  CB        28.8850  -19.8860   55.5240 C.3    80  VAL80       0.0290
    142  CG1       28.6490  -18.4470   55.7620 C.3    80  VAL80       0.0023
    143  CG2       28.7440  -20.6790   56.8180 C.3    80  VAL80       0.0023
    144  N         26.1670  -21.7970   55.3820 N.am   81  TYR81      -0.1974
    145  CA        24.8540  -22.1040   55.9050 C.3    81  TYR81       0.1639
    146  C         24.8670  -22.8840   57.2000 C.2    81  TYR81       0.2290
    147  O         25.7890  -23.6510   57.4700 O.2    81  TYR81      -0.2864
    148  CB        24.0720  -22.8920   54.8520 C.3    81  TYR81       0.0560
    149  CG        24.0180  -22.2010   53.5100 C.ar   81  TYR81      -0.0198
    150  CD1       25.1470  -22.1240   52.6900 C.ar   81  TYR81      -0.0009
    151  CD2       22.8450  -21.5980   53.0710 C.ar   81  TYR81      -0.0009
    152  CE1       25.1020  -21.4660   51.4650 C.ar   81  TYR81       0.0417
    153  CE2       22.7900  -20.9360   51.8510 C.ar   81  TYR81       0.0417
    154  CZ        23.9160  -20.8740   51.0550 C.ar   81  TYR81       0.1957
    155  OH        23.8450  -20.2220   49.8490 O.3    81  TYR81      -0.2866
@<TRIPOS>BOND
     1    17    14    1
     2    17    18    1
     3    14    15    1
     4    14    13    1
     5    15    16    2
     6     4     3    2
     7    13     3   am
     8    13    19    1
     9    18    19    1
    10     3     2    1
    11    32    33    1
    12     1     2    1
    13     2     5    1
    14   121   120    2
    15    35    34    2
    16    33    36    1
    17    33    34    1
    18    36    37    1
    19     5     6    1
    20    34    40   am
    21   120   119    1
    22     8     6   ar
    23     8    10   ar
    24     6     7   ar
    25   122   119    1
    26   122   123    1
    27    40    41    1
    28    37    38   ar
    29    37    39   ar
    30   119   118    1
    31    10    11   ar
    32   124   125    1
    33    50    51    1
    34    50    47    1
    35   132   131    1
    36    51   123    1
    37     7     9   ar
    38    41    42    1
    39    41    44    1
    40   118   116   am
    41   131   130    1
    42    42    43    2
    43    42    46   am
    44    11     9   ar
    45    11    12    1
    46   127   126    2
    47    46    47    1
    48   126   125    1
    49   125   128    1
    50   128   129    1
    51    47    48    1
    52    44    45    1
    53   130   129    1
    54   116   117    2
    55   116   115    1
    56   155   154    1
    57    55    54    2
    58   133   134    1
    59    48    52   am
    60    48    49    2
    61   115   114    1
    62   105   104    2
    63    52    53    1
    64    60    58   am
    65   154   152   ar
    66   154   153   ar
    67    54    53    1
    68    54    61   am
    69   110   108   ar
    70   110   112   ar
    71   134   135    1
    72   108   107   ar
    73   104   114   am
    74   104   103    1
    75    59    58    2
    76   152   150   ar
    77    53    56    1
    78    58    57    1
    79    63    62    1
    80    63    64    2
    81    56    57    1
    82    62    61    1
    83   136   135    2
    84   153   151   ar
    85   113   112    1
    86   135   137   am
    87    31    30    1
    88   112   111   ar
    89    77    75    1
    90   107   106    1
    91   107   109   ar
    92   106   103    1
    93   103   102    1
    94   150   149   ar
    95   102   100   am
    96    76    75    1
    97   151   149   ar
    98    30    29   ar
    99    30    28   ar
   100    29    27   ar
   101   137   138    1
   102    65    66    1
   103   111   109   ar
   104   149   148    1
   105    75    72    1
   106   100    99    1
   107   100   101    2
   108    99    98    1
   109    28    26   ar
   110    27    25   ar
   111    87    86    2
   112    72    71    1
   113    72    73    1
   114   138   139    1
   115   138   141    1
   116    20    21    1
   117    66    67    1
   118    66    69    1
   119    98    86   am
   120   148   145    1
   121    26    25   ar
   122    86    85    1
   123    25    24    1
   124   139   140    2
   125   139   144   am
   126    68    67    2
   127   144   145    1
   128    70    69    1
   129   141   142    1
   130   141   143    1
   131    21    24    1
   132    21    22    1
   133    73    78   am
   134    73    74    2
   135   145   146    1
   136    78    79    1
   137    85    84    1
   138    85    88    1
   139    84    80   am
   140    22    23    2
   141    80    79    1
   142    80    81    2
   143    94    96   ar
   144    94    91   ar
   145    79    82    1
   146   146   147    2
   147    96    97   ar
   148    88    89    1
   149    91    89   ar
   150    91    93   ar
   151    97    95   ar
   152    89    90   ar
   153    82    83    1
   154    93    95   ar
   155    93    92   ar
   156    90    92   ar
