@<TRIPOS>MOLECULE
tmp/1uheB00.pdb
 81 79 0 0 0
SMALL
GASTEIGER

@<TRIPOS>ATOM
      1  N        -16.6710   82.3390   15.0760 N.3     1  ILE1       -0.1245
      2  CA       -17.3540   81.1450   14.6110 C.3     1  ILE1        0.1561
      3  C        -18.5400   80.8480   15.5170 C.2     1  ILE1        0.2260
      4  O        -18.3990   80.6990   16.7330 O.2     1  ILE1       -0.2867
      5  CB       -16.3890   79.9180   14.5450 C.3     1  ILE1        0.0252
      6  CG1      -17.1040   78.7270   13.8980 C.3     1  ILE1        0.0019
      7  CG2      -15.8730   79.5600   15.9380 C.3     1  ILE1        0.0019
      8  CD1      -16.1880   77.5530   13.5810 C.3     1  ILE1        0.0001
      9  N         -6.6740   78.6550   11.0870 N.3    30  PHE30      -0.1227
     10  CA        -6.8040   79.9910   11.6550 C.3    30  PHE30       0.1736
     11  C         -7.3880   79.9620   13.0540 C.2    30  PHE30       0.2596
     12  O         -7.9180   78.9410   13.4950 O.2    30  PHE30      -0.2718
     13  CB        -7.6440   80.8850   10.7300 C.3    30  PHE30       0.0547
     14  CG        -9.0520   80.4010   10.5090 C.ar   30  PHE30      -0.0202
     15  CD1      -10.0950   80.8660   11.3080 C.ar   30  PHE30      -0.0042
     16  CD2       -9.3390   79.4940    9.4920 C.ar   30  PHE30      -0.0042
     17  CE1      -11.4040   80.4360   11.0950 C.ar   30  PHE30      -0.0003
     18  CE2      -10.6510   79.0550    9.2710 C.ar   30  PHE30      -0.0003
     19  CZ       -11.6840   79.5280   10.0760 C.ar   30  PHE30      -0.0000
     20  N         -7.2680   81.0820   13.7570 N.am   31  SER31      -0.1938
     21  CA        -7.7810   81.1930   15.1160 C.3    31  SER31       0.2055
     22  C         -8.8850   82.2290   15.1930 C.2    31  SER31       0.2644
     23  O         -8.8050   83.2850   14.5640 O.2    31  SER31      -0.2714
     24  CB        -6.6640   81.6030   16.0800 C.3    31  SER31       0.2130
     25  OG        -5.6400   80.6200   16.1430 O.3    31  SER31      -0.2179
     26  N         -9.9190   81.9170   15.9600 N.am   32  THR32      -0.1936
     27  CA       -11.0200   82.8420   16.1570 C.3    32  THR32       0.2028
     28  C        -11.6540   82.5010   17.5010 C.2    32  THR32       0.2642
     29  O        -11.0830   81.7300   18.2640 O.2    32  THR32      -0.2714
     30  CB       -12.0370   82.7410   15.0060 C.3    32  THR32       0.1808
     31  OG1      -12.9740   83.8150   15.1190 O.3    32  THR32      -0.2208
     32  CG2      -12.7710   81.4090   15.0310 C.3    32  THR32       0.0379
     33  N        -12.8050   83.0840   17.8160 N.am   33  TYR33      -0.1973
     34  CA       -13.4400   82.7830   19.0950 C.3    33  TYR33       0.1639
     35  C        -14.8510   82.2400   18.9170 C.2    33  TYR33       0.2290
     36  O        -15.4790   82.4130   17.8700 O.2    33  TYR33      -0.2864
     37  CB       -13.4260   84.0180   20.0080 C.3    33  TYR33       0.0560
     38  CG       -14.2570   85.1770   19.5260 C.ar   33  TYR33      -0.0198
     39  CD1      -15.6150   85.2620   19.8330 C.ar   33  TYR33      -0.0009
     40  CD2      -13.6880   86.1850   18.7500 C.ar   33  TYR33      -0.0009
     41  CE1      -16.3860   86.3250   19.3800 C.ar   33  TYR33       0.0417
     42  CE2      -14.4470   87.2500   18.2900 C.ar   33  TYR33       0.0417
     43  CZ       -15.7950   87.3160   18.6070 C.ar   33  TYR33       0.1957
     44  OH       -16.5460   88.3680   18.1400 O.3    33  TYR33      -0.2866
     45  N        -18.8590   81.7570   19.4120 N.3    35  ILE35      -0.1245
     46  CA       -20.1040   82.4850   19.6220 C.3    35  ILE35       0.1561
     47  C        -21.1410   81.3730   19.7350 C.2    35  ILE35       0.2260
     48  O        -21.2200   80.5070   18.8660 O.2    35  ILE35      -0.2867
     49  CB       -20.4690   83.3870   18.4270 C.3    35  ILE35       0.0252
     50  CG1      -19.4640   84.5360   18.3120 C.3    35  ILE35       0.0019
     51  CG2      -21.8790   83.9400   18.6120 C.3    35  ILE35       0.0019
     52  CD1      -19.7100   85.4430   17.1170 C.3    35  ILE35       0.0001
     53  N        -19.1010   80.4380    9.9800 N.3    45  VAL45      -0.1231
     54  CA       -17.8530   81.1810   10.0780 C.3    45  VAL45       0.1692
     55  C        -18.1390   82.6310    9.6860 C.2    45  VAL45       0.2592
     56  O        -18.5950   82.9070    8.5740 O.2    45  VAL45      -0.2718
     57  CB       -16.7820   80.5630    9.1640 C.3    45  VAL45       0.0266
     58  CG1      -15.5030   81.3750    9.2370 C.3    45  VAL45       0.0020
     59  CG2      -16.5080   79.1240    9.6000 C.3    45  VAL45       0.0020
     60  N        -17.8650   83.5460   10.6130 N.am   46  ASN46      -0.1960
     61  CA       -18.1350   84.9720   10.4250 C.3    46  ASN46       0.1819
     62  C        -16.9160   85.8670   10.2270 C.2    46  ASN46       0.2622
     63  O        -15.7970   85.5160   10.5920 O.2    46  ASN46      -0.2715
     64  CB       -18.9100   85.5000   11.6330 C.3    46  ASN46       0.1195
     65  CG       -20.1180   84.6540   11.9590 C.2    46  ASN46       0.2630
     66  OD1      -21.0360   84.5280   11.1510 O.2    46  ASN46      -0.2716
     67  ND2      -20.1230   84.0650   13.1500 N.am   46  ASN46      -0.0877
     68  N        -17.1590   87.0450    9.6640 N.am   47  GLY47      -0.1940
     69  CA       -16.0900   88.0030    9.4580 C.3    47  GLY47       0.2014
     70  C        -15.0550   87.6000    8.4320 C.2    47  GLY47       0.2639
     71  O        -15.3510   86.8720    7.4900 O.2    47  GLY47      -0.2714
     72  N        -13.8350   88.0910    8.6230 N.am   48  ALA48      -0.1963
     73  CA       -12.7370   87.8030    7.7140 C.3    48  ALA48       0.1728
     74  C        -12.5140   86.3130    7.5290 C.2    48  ALA48       0.2616
     75  O        -12.1080   85.8700    6.4530 O.2    48  ALA48      -0.2715
     76  CB       -11.4540   88.4590    8.2210 C.3    48  ALA48       0.0334
     77  N        -12.7830   85.5380    8.5770 N.am   49  ALA49      -0.1977
     78  CA       -12.5860   84.0930    8.5180 C.3    49  ALA49       0.1597
     79  C        -13.4200   83.4200    7.4390 C.2    49  ALA49       0.2287
     80  O        -13.0880   82.3250    6.9870 O.2    49  ALA49      -0.2864
     81  CB       -12.8940   83.4670    9.8810 C.3    49  ALA49       0.0319
@<TRIPOS>BOND
     1    75    74    2
     2    80    79    2
     3    79    78    1
     4    71    70    2
     5    74    73    1
     6    74    77   am
     7    73    76    1
     8    73    72    1
     9    70    72   am
    10    70    69    1
    11    78    77    1
    12    78    81    1
    13    56    55    2
    14    57    58    1
    15    57    59    1
    16    57    54    1
    17    18    16   ar
    18    18    19   ar
    19    69    68    1
    20    16    14   ar
    21    68    62   am
    22    55    54    1
    23    55    60   am
    24    53    54    1
    25    19    17   ar
    26    62    61    1
    27    62    63    2
    28    61    60    1
    29    61    64    1
    30    14    13    1
    31    14    15   ar
    32    13    10    1
    33     9    10    1
    34    17    15   ar
    35    66    65    2
    36    64    65    1
    37    10    11    1
    38    65    67   am
    39    11    12    2
    40    11    20   am
    41     8     6    1
    42    20    21    1
    43     6     5    1
    44     5     2    1
    45     5     7    1
    46    23    22    2
    47     2     1    1
    48     2     3    1
    49    30    32    1
    50    30    31    1
    51    30    27    1
    52    21    22    1
    53    21    24    1
    54    22    26   am
    55     3     4    2
    56    26    27    1
    57    24    25    1
    58    27    28    1
    59    52    50    1
    60    28    33   am
    61    28    29    2
    62    33    34    1
    63    36    35    2
    64    44    43    1
    65    42    43   ar
    66    42    40   ar
    67    50    49    1
    68    49    51    1
    69    49    46    1
    70    43    41   ar
    71    40    38   ar
    72    48    47    2
    73    35    34    1
    74    34    37    1
    75    41    39   ar
    76    45    46    1
    77    38    39   ar
    78    38    37    1
    79    46    47    1
