@<TRIPOS>MOLECULE
tmp/1uhgB00.pdb
 78 72 0 0 0
SMALL
GASTEIGER

@<TRIPOS>ATOM
      1  N         -6.1910   15.1040   12.1270 N.3   160  LEU160     -0.1231
      2  CA        -6.9500   16.2040   12.7340 C.3   160  LEU160      0.1693
      3  C         -6.9320   16.0350   14.2580 C.2   160  LEU160      0.2591
      4  O         -7.3250   14.9930   14.7820 O.2   160  LEU160     -0.2718
      5  CB        -8.4040   16.1970   12.2540 C.3   160  LEU160      0.0284
      6  CG        -8.7100   16.5610   10.8020 C.3   160  LEU160      0.0019
      7  CD1      -10.2110   16.3610   10.5840 C.3   160  LEU160      0.0001
      8  CD2       -8.3050   18.0160   10.4990 C.3   160  LEU160      0.0001
      9  N         -6.4770   17.0500   14.9800 N.am  161  GLN161     -0.1979
     10  CA        -6.4360   16.9240   16.4340 C.3   161  GLN161      0.1601
     11  C         -7.7160   17.3960   17.1060 C.2   161  GLN161      0.2287
     12  O         -8.5500   18.0500   16.4880 O.2   161  GLN161     -0.2864
     13  CB        -5.2780   17.7330   17.0100 C.3   161  GLN161      0.0394
     14  CG        -5.4810   19.2270   16.9110 C.3   161  GLN161      0.0908
     15  CD        -4.9100   19.8050   15.6180 C.2   161  GLN161      0.2608
     16  OE1       -5.4330   19.5760   14.5210 O.2   161  GLN161     -0.2717
     17  NE2       -3.8170   20.5510   15.7470 N.am  161  GLN161     -0.0878
     18  N        -10.1390   20.7020   16.4760 N.3   163  SER163     -0.1217
     19  CA        -9.9600   21.2490   15.1370 C.3   163  SER163      0.1889
     20  C        -11.2860   21.2870   14.3510 C.2   163  SER163      0.2288
     21  O        -11.4090   22.0300   13.3750 O.2   163  SER163     -0.2866
     22  CB        -8.8960   20.4550   14.3630 C.3   163  SER163      0.2089
     23  OG        -9.2380   19.0870   14.2990 O.3   163  SER163     -0.2183
     24  N         -0.0860   22.6980    8.4470 N.3   289  ASN289     -0.1240
     25  CA        -1.3860   23.3420    8.4120 C.3   289  ASN289      0.1653
     26  C         -1.3040   24.1290    7.0910 C.2   289  ASN289      0.2266
     27  O         -0.6360   25.1580    7.0080 O.2   289  ASN289     -0.2867
     28  CB        -1.5100   24.2950    9.6060 C.3   289  ASN289      0.1155
     29  CG        -2.8550   25.0100    9.6480 C.2   289  ASN289      0.2627
     30  OD1       -3.5620   25.0520    8.6600 O.2   289  ASN289     -0.2716
     31  ND2       -3.1910   25.5560   10.8120 N.am  289  ASN289     -0.0877
     32  N         -3.5390   25.8200    5.7190 N.3   291  THR291     -0.1203
     33  CA        -4.2380   27.0970    5.7800 C.3   291  THR291      0.1994
     34  C         -3.2220   28.2010    6.0600 C.2   291  THR291      0.2618
     35  O         -3.1990   29.2050    5.3750 O.2   291  THR291     -0.2717
     36  CB        -5.2910   27.1360    6.8890 C.3   291  THR291      0.1784
     37  OG1       -6.2890   26.1350    6.6400 O.3   291  THR291     -0.2211
     38  CG2       -5.9610   28.5210    6.9260 C.3   291  THR291      0.0376
     39  N         -2.3580   28.0030    7.0540 N.am  292  SER292     -0.1951
     40  CA        -1.3910   29.0360    7.3700 C.3   292  SER292      0.1924
     41  C         -0.3680   29.2440    6.2690 C.2   292  SER292      0.2314
     42  O          0.0090   30.3820    5.9770 O.2   292  SER292     -0.2863
     43  CB        -0.7020   28.7360    8.7110 C.3   292  SER292      0.2116
     44  OG        -0.3080   27.3800    8.7640 O.3   292  SER292     -0.2180
     45  N         -2.2330   30.8870    3.0770 N.3   295  MET295     -0.1245
     46  CA        -2.6300   32.2720    3.2970 C.3   295  MET295      0.1570
     47  C         -1.4040   33.1820    3.2040 C.2   295  MET295      0.2261
     48  O         -1.4820   34.2720    2.6340 O.2   295  MET295     -0.2867
     49  CB        -3.3080   32.4320    4.6550 C.3   295  MET295      0.0387
     50  CG        -4.6560   31.7620    4.7030 C.3   295  MET295      0.0595
     51  SD        -5.6590   32.3130    6.0680 S.3   295  MET295     -0.1393
     52  CE        -4.5750   32.3060    7.3920 C.3   295  MET295      0.0692
     53  N        -10.5050   30.5630    2.7010 N.3   303  PHE303     -0.1241
     54  CA       -10.5230   30.2360    4.1230 C.3   303  PHE303      0.1605
     55  C        -11.3690   31.1810    4.9720 C.2   303  PHE303      0.2264
     56  O        -11.3920   31.0630    6.2000 O.2   303  PHE303     -0.2867
     57  CB        -9.0960   30.2560    4.6870 C.3   303  PHE303      0.0534
     58  CG        -8.1320   29.3230    3.9660 C.ar  303  PHE303     -0.0203
     59  CD1       -8.3090   27.9390    4.0210 C.ar  303  PHE303     -0.0042
     60  CD2       -7.0650   29.8340    3.2380 C.ar  303  PHE303     -0.0042
     61  CE1       -7.4340   27.0740    3.3590 C.ar  303  PHE303     -0.0003
     62  CE2       -6.1760   28.9930    2.5670 C.ar  303  PHE303     -0.0003
     63  CZ        -6.3660   27.5880    2.6300 C.ar  303  PHE303     -0.0000
     64  N        -12.5270   25.2190    6.2470 N.3   320  SER320     -0.1202
     65  CA       -12.2840   25.4330    7.6750 C.3   320  SER320      0.2020
     66  C        -10.9390   24.8980    8.1960 C.2   320  SER320      0.2618
     67  O        -10.3830   25.4310    9.1610 O.2   320  SER320     -0.2717
     68  CB       -13.4270   24.8180    8.4960 C.3   320  SER320      0.2103
     69  OG       -14.6590   25.4250    8.1330 O.3   320  SER320     -0.2182
     70  N        -10.4330   23.8320    7.5770 N.am  321  GLN321     -0.1979
     71  CA        -9.1390   23.2540    7.9740 C.3   321  GLN321      0.1601
     72  C         -8.5990   22.6210    6.7110 C.2   321  GLN321      0.2287
     73  O         -9.3690   22.1750    5.8610 O.2   321  GLN321     -0.2864
     74  CB        -9.2740   22.1600    9.0480 C.3   321  GLN321      0.0394
     75  CG        -9.8260   22.6130   10.4490 C.3   321  GLN321      0.0908
     76  CD        -8.8880   23.5490   11.2250 C.2   321  GLN321      0.2608
     77  OE1       -7.8110   23.8990   10.7560 O.2   321  GLN321     -0.2717
     78  NE2       -9.3200   23.9700   12.4150 N.am  321  GLN321     -0.0878
@<TRIPOS>BOND
     1    62    63   ar
     2    62    60   ar
     3    63    61   ar
     4    48    47    2
     5    53    54    1
     6    45    46    1
     7    47    46    1
     8    60    58   ar
     9    46    49    1
    10    61    59   ar
    11    58    59   ar
    12    58    57    1
    13    54    57    1
    14    54    55    1
    15    49    50    1
    16    50    51    1
    17    55    56    2
    18    35    34    2
    19    32    33    1
    20    33    34    1
    21    33    36    1
    22    73    72    2
    23    42    41    2
    24    34    39   am
    25    51    52    1
    26    64    65    1
    27    41    40    1
    28    37    36    1
    29    72    71    1
    30    36    38    1
    31    27    26    2
    32    39    40    1
    33    26    25    1
    34    40    43    1
    35    70    71    1
    36    70    66   am
    37    65    66    1
    38    65    68    1
    39    71    74    1
    40    69    68    1
    41    66    67    2
    42    25    24    1
    43    25    28    1
    44    30    29    2
    45    43    44    1
    46    74    75    1
    47    28    29    1
    48    29    31   am
    49    75    76    1
    50     8     6    1
    51     7     6    1
    52    77    76    2
    53     6     5    1
    54    76    78   am
    55     1     2    1
    56     5     2    1
    57     2     3    1
    58    21    20    2
    59     3     4    2
    60     3     9   am
    61    23    22    1
    62    20    19    1
    63    22    19    1
    64    16    15    2
    65     9    10    1
    66    19    18    1
    67    15    17   am
    68    15    14    1
    69    10    13    1
    70    10    11    1
    71    12    11    2
    72    14    13    1
