@<TRIPOS>MOLECULE
tmp/1uhhB00.pdb
 279 275 0 0 0
SMALL
GASTEIGER

@<TRIPOS>ATOM
      1  N         -5.1540  -31.3310  -25.1660 N.3    13  ARG13      -0.1231
      2  CA        -6.3250  -31.0340  -24.3610 C.3    13  ARG13       0.1694
      3  C         -7.2710  -32.2440  -24.4130 C.2    13  ARG13       0.2592
      4  O         -7.8360  -32.6990  -23.3630 O.2    13  ARG13      -0.2718
      5  CB        -7.0000  -29.7720  -24.8980 C.3    13  ARG13       0.0321
      6  CG        -8.1420  -29.2990  -24.1140 C.3    13  ARG13       0.0489
      7  CD        -8.5260  -27.8520  -24.4990 C.3    13  ARG13       0.2205
      8  NE        -7.4900  -26.9930  -23.9840 N.pl3  13  ARG13      -0.0865
      9  CZ        -7.2850  -25.7350  -24.3030 C.cat  13  ARG13       0.5346
     10  NH1       -8.0990  -25.0870  -25.1290 N.pl3  13  ARG13       0.1354
     11  NH2       -6.2570  -25.0940  -23.7440 N.pl3  13  ARG13       0.1354
     12  N         -7.4950  -32.7540  -25.6370 N.am   14  HIS14      -0.1976
     13  CA        -8.3280  -33.9210  -25.7850 C.3    14  HIS14       0.1656
     14  C         -7.6810  -35.2290  -25.2900 C.2    14  HIS14       0.2291
     15  O         -8.4250  -36.1140  -24.8600 O.2    14  HIS14      -0.2864
     16  CB        -8.9050  -34.0830  -27.2000 C.3    14  HIS14       0.0771
     17  CG        -9.8840  -33.0030  -27.5110 C.ar   14  HIS14       0.0820
     18  ND1      -11.1520  -32.9810  -26.9600 N.ar   14  HIS14      -0.2267
     19  CD2       -9.7270  -31.8210  -28.1640 C.ar   14  HIS14       0.1154
     20  CE1      -11.7600  -31.8610  -27.3260 C.ar   14  HIS14       0.1986
     21  NE2      -10.9220  -31.1450  -28.0690 N.ar   14  HIS14      -0.2212
     22  N         -9.2580  -37.8930  -22.6510 N.3    17  PHE17      -0.1241
     23  CA        -9.2660  -39.3450  -22.9480 C.3    17  PHE17       0.1605
     24  C         -8.6970  -40.0950  -21.7810 C.2    17  PHE17       0.2264
     25  O         -9.2990  -41.0510  -21.2490 O.2    17  PHE17      -0.2867
     26  CB        -8.4750  -39.6330  -24.2470 C.3    17  PHE17       0.0534
     27  CG        -8.4340  -41.0880  -24.6190 C.ar   17  PHE17      -0.0203
     28  CD1       -9.4240  -41.6400  -25.3450 C.ar   17  PHE17      -0.0042
     29  CD2       -7.4030  -41.8980  -24.1570 C.ar   17  PHE17      -0.0042
     30  CE1       -9.3880  -43.0020  -25.7310 C.ar   17  PHE17      -0.0003
     31  CE2       -7.3170  -43.2390  -24.5490 C.ar   17  PHE17      -0.0003
     32  CZ        -8.3200  -43.7980  -25.2920 C.ar   17  PHE17      -0.0000
     33  N         -8.3490  -39.0730  -18.6630 N.3    19  PHE19      -0.1227
     34  CA        -9.1930  -38.8680  -17.4880 C.3    19  PHE19       0.1736
     35  C        -10.4440  -39.7900  -17.5790 C.2    19  PHE19       0.2595
     36  O        -10.8960  -40.3730  -16.5840 O.2    19  PHE19      -0.2718
     37  CB        -9.6410  -37.4040  -17.4380 C.3    19  PHE19       0.0547
     38  CG       -10.8370  -37.1750  -16.6040 C.ar   19  PHE19      -0.0202
     39  CD1      -10.7810  -37.2630  -15.2250 C.ar   19  PHE19      -0.0042
     40  CD2      -12.0390  -36.8450  -17.1900 C.ar   19  PHE19      -0.0042
     41  CE1      -11.9310  -37.0340  -14.4660 C.ar   19  PHE19      -0.0003
     42  CE2      -13.1680  -36.6040  -16.4210 C.ar   19  PHE19      -0.0003
     43  CZ       -13.0990  -36.7220  -15.0570 C.ar   19  PHE19      -0.0000
     44  N        -11.0400  -39.8450  -18.7560 N.am   20  LEU20      -0.1980
     45  CA       -12.2120  -40.7420  -18.9600 C.3    20  LEU20       0.1596
     46  C        -11.8380  -42.2170  -18.9040 C.2    20  LEU20       0.2287
     47  O        -12.6830  -43.0300  -18.5130 O.2    20  LEU20      -0.2864
     48  CB       -12.9220  -40.4020  -20.2670 C.3    20  LEU20       0.0297
     49  CG       -13.5360  -38.9900  -20.2220 C.3    20  LEU20       0.0022
     50  CD1      -13.9420  -38.5430  -21.6250 C.3    20  LEU20       0.0001
     51  CD2      -14.7520  -38.9210  -19.2920 C.3    20  LEU20       0.0001
     52  N        -21.9580  -42.9800  -20.8370 N.3    33  VAL33      -0.1245
     53  CA       -23.3420  -42.7140  -20.4440 C.3    33  VAL33       0.1561
     54  C        -23.5930  -43.2680  -19.0400 C.2    33  VAL33       0.2260
     55  O        -24.4140  -42.7400  -18.3080 O.2    33  VAL33      -0.2867
     56  CB       -24.4250  -43.2220  -21.4450 C.3    33  VAL33       0.0252
     57  CG1      -24.2530  -42.5700  -22.8770 C.3    33  VAL33       0.0019
     58  CG2      -24.4660  -44.7610  -21.5610 C.3    33  VAL33       0.0019
     59  N        -21.2120  -43.1090  -16.5940 N.3    35  LYS35      -0.1231
     60  CA       -20.6190  -42.0680  -15.7870 C.3    35  LYS35       0.1693
     61  C        -21.5420  -40.8690  -15.6980 C.2    35  LYS35       0.2591
     62  O        -21.7350  -40.2980  -14.6400 O.2    35  LYS35      -0.2718
     63  CB       -19.2530  -41.6280  -16.3650 C.3    35  LYS35       0.0285
     64  CG       -18.4780  -40.5870  -15.5270 C.3    35  LYS35       0.0035
     65  CD       -17.2770  -39.9120  -16.2730 C.3    35  LYS35       0.0206
     66  CE       -16.5370  -38.8030  -15.4620 C.3    35  LYS35       0.1093
     67  NZ       -15.8540  -39.2650  -14.1390 N.3    35  LYS35      -0.1314
     68  N        -22.0680  -40.4600  -16.8340 N.am   36  ALA36      -0.1980
     69  CA       -22.9170  -39.2610  -16.8740 C.3    36  ALA36       0.1597
     70  C        -24.1580  -39.3770  -15.9890 C.2    36  ALA36       0.2287
     71  O        -24.4940  -38.4490  -15.2510 O.2    36  ALA36      -0.2864
     72  CB       -23.3160  -38.9640  -18.3140 C.3    36  ALA36       0.0319
     73  N        -23.3420  -39.5500  -12.1050 N.3    39  ILE39      -0.1245
     74  CA       -23.1680  -38.1970  -11.5610 C.3    39  ILE39       0.1561
     75  C        -24.5150  -37.5320  -11.3210 C.2    39  ILE39       0.2260
     76  O        -24.7850  -37.0870  -10.1810 O.2    39  ILE39      -0.2867
     77  CB       -22.3300  -37.2900  -12.5130 C.3    39  ILE39       0.0252
     78  CG1      -20.8920  -37.7630  -12.5700 C.3    39  ILE39       0.0019
     79  CG2      -22.3070  -35.8470  -12.0050 C.3    39  ILE39       0.0019
     80  CD1      -20.2480  -37.3320  -13.8550 C.3    39  ILE39       0.0001
     81  N        -30.6060  -35.8110  -20.0260 N.3    54  HIS54      -0.1241
     82  CA       -29.1700  -35.6180  -19.9150 C.3    54  HIS54       0.1621
     83  C        -28.4510  -36.8080  -20.5930 C.2    54  HIS54       0.2264
     84  O        -27.4930  -36.6230  -21.2910 O.2    54  HIS54      -0.2867
     85  CB       -28.7950  -35.4050  -18.4540 C.3    54  HIS54       0.0745
     86  CG       -27.3350  -35.2390  -18.2190 C.ar   54  HIS54       0.0817
     87  ND1      -26.5120  -36.2870  -17.8480 N.ar   54  HIS54      -0.2268
     88  CD2      -26.5300  -34.1580  -18.3590 C.ar   54  HIS54       0.1154
     89  CE1      -25.2740  -35.8390  -17.7120 C.ar   54  HIS54       0.1986
     90  NE2      -25.2680  -34.5420  -17.9670 N.ar   54  HIS54      -0.2212
     91  N        -25.7070  -36.5850  -23.7980 N.3    58  VAL58      -0.1245
     92  CA       -24.3300  -37.1440  -23.6770 C.3    58  VAL58       0.1561
     93  C        -24.0900  -38.2430  -24.7130 C.2    58  VAL58       0.2260
     94  O        -23.0240  -38.3090  -25.3400 O.2    58  VAL58      -0.2867
     95  CB       -24.0790  -37.7110  -22.2370 C.3    58  VAL58       0.0252
     96  CG1      -22.7820  -38.5130  -22.1800 C.3    58  VAL58       0.0019
     97  CG2      -24.0340  -36.6040  -21.2150 C.3    58  VAL58       0.0019
     98  N        -23.5280  -36.4560  -27.9580 N.3    61  PHE61      -0.1227
     99  CA       -22.2510  -35.7170  -27.9760 C.3    61  PHE61       0.1736
    100  C        -21.1020  -36.6970  -28.3050 C.2    61  PHE61       0.2595
    101  O        -20.3610  -36.5020  -29.2940 O.2    61  PHE61      -0.2718
    102  CB       -22.0630  -34.9470  -26.6740 C.3    61  PHE61       0.0547
    103  CG       -20.7210  -34.2470  -26.5370 C.ar   61  PHE61      -0.0202
    104  CD1      -20.5460  -32.9510  -27.0140 C.ar   61  PHE61      -0.0042
    105  CD2      -19.6630  -34.8910  -25.9040 C.ar   61  PHE61      -0.0042
    106  CE1      -19.2680  -32.3020  -26.9050 C.ar   61  PHE61      -0.0003
    107  CE2      -18.3950  -34.2370  -25.7410 C.ar   61  PHE61      -0.0003
    108  CZ       -18.2270  -32.9290  -26.2360 C.ar   61  PHE61      -0.0000
    109  N        -20.9580  -37.7640  -27.5360 N.am   62  PHE62      -0.1976
    110  CA       -19.8950  -38.7120  -27.7580 C.3    62  PHE62       0.1639
    111  C        -20.1220  -39.4870  -29.0410 C.2    62  PHE62       0.2290
    112  O        -19.1550  -39.8450  -29.7200 O.2    62  PHE62      -0.2864
    113  CB       -19.6650  -39.6160  -26.5420 C.3    62  PHE62       0.0560
    114  CG       -19.0110  -38.9060  -25.3810 C.ar   62  PHE62      -0.0200
    115  CD1      -19.7280  -38.6290  -24.2350 C.ar   62  PHE62      -0.0042
    116  CD2      -17.6490  -38.5490  -25.4280 C.ar   62  PHE62      -0.0042
    117  CE1      -19.1310  -38.0380  -23.1580 C.ar   62  PHE62      -0.0003
    118  CE2      -17.0520  -37.9180  -24.3830 C.ar   62  PHE62      -0.0003
    119  CZ       -17.7830  -37.6500  -23.2290 C.ar   62  PHE62      -0.0000
    120  N        -10.3400  -42.0660  -31.3300 N.3    77  TYR77      -0.1241
    121  CA       -10.9840  -41.0600  -30.5080 C.3    77  TYR77       0.1605
    122  C        -10.6620  -39.6590  -31.0850 C.2    77  TYR77       0.2264
    123  O        -11.5600  -38.8380  -31.3340 O.2    77  TYR77      -0.2867
    124  CB       -10.4930  -41.1760  -29.0700 C.3    77  TYR77       0.0534
    125  CG       -11.0970  -40.1990  -28.1420 C.ar   77  TYR77      -0.0201
    126  CD1      -12.3940  -40.3880  -27.6670 C.ar   77  TYR77      -0.0009
    127  CD2      -10.4280  -39.0340  -27.7800 C.ar   77  TYR77      -0.0009
    128  CE1      -12.9840  -39.4760  -26.7780 C.ar   77  TYR77       0.0417
    129  CE2      -11.0010  -38.1280  -26.9010 C.ar   77  TYR77       0.0417
    130  CZ       -12.3120  -38.3530  -26.4120 C.ar   77  TYR77       0.1957
    131  OH       -12.9130  -37.4620  -25.5100 O.3    77  TYR77      -0.2866
    132  N        -13.0100  -36.8140  -32.8940 N.3    81  TRP81      -0.1241
    133  CA       -13.1630  -35.4920  -32.3420 C.3    81  TRP81       0.1605
    134  C        -12.9660  -34.4610  -33.4210 C.2    81  TRP81       0.2264
    135  O        -13.5670  -33.4230  -33.3780 O.2    81  TRP81      -0.2867
    136  CB       -12.2080  -35.2670  -31.1500 C.3    81  TRP81       0.0550
    137  CG       -12.9230  -35.2760  -29.8880 C.ar   81  TRP81       0.0003
    138  CD1      -13.1110  -36.3130  -29.0320 C.ar   81  TRP81       0.0946
    139  CD2      -13.6210  -34.1500  -29.3240 C.ar   81  TRP81       0.0152
    140  NE1      -13.8790  -35.9030  -27.9650 N.ar   81  TRP81      -0.2442
    141  CE2      -14.2220  -34.5880  -28.1300 C.ar   81  TRP81       0.0810
    142  CE3      -13.8430  -32.8440  -29.7470 C.ar   81  TRP81       0.0012
    143  CZ2      -14.9560  -33.7600  -27.3350 C.ar   81  TRP81       0.0191
    144  CZ3      -14.5700  -32.0030  -28.9390 C.ar   81  TRP81       0.0001
    145  CH2      -15.1010  -32.4580  -27.7420 C.ar   81  TRP81       0.0015
    146  N        -23.2270  -29.4750  -27.7900 N.3   100  ILE100     -0.1245
    147  CA       -22.7760  -28.9950  -26.5180 C.3   100  ILE100      0.1561
    148  C        -23.7760  -28.0290  -25.8820 C.2   100  ILE100      0.2260
    149  O        -23.8810  -27.9680  -24.6690 O.2   100  ILE100     -0.2867
    150  CB       -21.2960  -28.4030  -26.6130 C.3   100  ILE100      0.0252
    151  CG1      -20.6230  -28.3110  -25.2320 C.3   100  ILE100      0.0019
    152  CG2      -21.2690  -27.0550  -27.3410 C.3   100  ILE100      0.0019
    153  CD1      -20.4190  -29.5740  -24.5720 C.3   100  ILE100      0.0001
    154  N        -26.6030  -30.3630  -24.4900 N.3   103  TRP103     -0.1227
    155  CA       -26.1020  -30.9670  -23.2210 C.3   103  TRP103      0.1737
    156  C        -26.1100  -29.9740  -22.0880 C.2   103  TRP103      0.2596
    157  O        -26.6800  -30.2420  -21.0040 O.2   103  TRP103     -0.2718
    158  CB       -24.7050  -31.5510  -23.4970 C.3   103  TRP103      0.0564
    159  CG       -24.0530  -32.2190  -22.3650 C.ar  103  TRP103      0.0003
    160  CD1      -24.5980  -32.5980  -21.1440 C.ar  103  TRP103      0.0946
    161  CD2      -22.6700  -32.5960  -22.3140 C.ar  103  TRP103      0.0152
    162  NE1      -23.6270  -33.2240  -20.3870 N.ar  103  TRP103     -0.2442
    163  CE2      -22.4450  -33.2310  -21.0940 C.ar  103  TRP103      0.0810
    164  CE3      -21.5980  -32.4810  -23.2240 C.ar  103  TRP103      0.0012
    165  CZ2      -21.1950  -33.7170  -20.7380 C.ar  103  TRP103      0.0191
    166  CZ3      -20.3540  -32.9780  -22.8830 C.ar  103  TRP103      0.0001
    167  CH2      -20.1790  -33.6370  -21.6570 C.ar  103  TRP103      0.0015
    168  N        -25.5880  -28.7690  -22.3480 N.am  104  GLY104     -0.1957
    169  CA       -25.6150  -27.6900  -21.3890 C.3   104  GLY104      0.1869
    170  C        -27.0040  -27.4180  -20.8410 C.2   104  GLY104      0.2309
    171  O        -27.1590  -27.2390  -19.6280 O.2   104  GLY104     -0.2863
    172  N        -27.9440  -30.2790  -18.5810 N.3   107  LEU107     -0.1231
    173  CA       -27.1780  -30.2980  -17.3400 C.3   107  LEU107      0.1693
    174  C        -27.5690  -29.1260  -16.4280 C.2   107  LEU107      0.2592
    175  O        -27.8010  -29.3060  -15.2440 O.2   107  LEU107     -0.2718
    176  CB       -25.6850  -30.3000  -17.5710 C.3   107  LEU107      0.0284
    177  CG       -24.7900  -30.3410  -16.3000 C.3   107  LEU107      0.0019
    178  CD1      -25.0320  -31.5970  -15.4710 C.3   107  LEU107      0.0001
    179  CD2      -23.3460  -30.2730  -16.6860 C.3   107  LEU107      0.0001
    180  N        -27.7370  -27.9430  -17.0100 N.am  108  PHE108     -0.1976
    181  CA       -28.1460  -26.8000  -16.2340 C.3   108  PHE108      0.1639
    182  C        -29.5400  -26.9120  -15.6380 C.2   108  PHE108      0.2290
    183  O        -29.7720  -26.3540  -14.5810 O.2   108  PHE108     -0.2864
    184  CB       -28.0060  -25.4970  -17.0050 C.3   108  PHE108      0.0560
    185  CG       -26.6020  -24.9390  -17.0150 C.ar  108  PHE108     -0.0200
    186  CD1      -25.4840  -25.7720  -17.0080 C.ar  108  PHE108     -0.0042
    187  CD2      -26.3910  -23.5590  -17.0360 C.ar  108  PHE108     -0.0042
    188  CE1      -24.1800  -25.2440  -17.0240 C.ar  108  PHE108     -0.0003
    189  CE2      -25.0630  -23.0290  -17.1360 C.ar  108  PHE108     -0.0003
    190  CZ       -23.9880  -23.8660  -17.1130 C.ar  108  PHE108     -0.0000
    191  N        -21.3980  -24.9290   -9.7800 N.3   124  TRP124     -0.1241
    192  CA       -20.3240  -25.3460  -10.6850 C.3   124  TRP124      0.1605
    193  C        -19.3310  -26.2520   -9.9670 C.2   124  TRP124      0.2264
    194  O        -18.9130  -27.2850  -10.5000 O.2   124  TRP124     -0.2867
    195  CB       -19.5970  -24.0990  -11.2480 C.3   124  TRP124      0.0550
    196  CG       -18.4770  -24.3910  -12.1820 C.ar  124  TRP124      0.0003
    197  CD1      -17.2080  -23.9300  -12.0720 C.ar  124  TRP124      0.0946
    198  CD2      -18.5290  -25.1400  -13.3910 C.ar  124  TRP124      0.0152
    199  NE1      -16.4520  -24.3430  -13.1320 N.ar  124  TRP124     -0.2442
    200  CE2      -17.2300  -25.1130  -13.9520 C.ar  124  TRP124      0.0810
    201  CE3      -19.5360  -25.8690  -14.0520 C.ar  124  TRP124      0.0012
    202  CZ2      -16.9200  -25.7390  -15.1520 C.ar  124  TRP124      0.0191
    203  CZ3      -19.2430  -26.4920  -15.2460 C.ar  124  TRP124      0.0001
    204  CH2      -17.9190  -26.4450  -15.7810 C.ar  124  TRP124      0.0015
    205  N        -21.0240  -29.8180   -9.5120 N.3   127  TYR127     -0.1241
    206  CA       -20.9390  -30.6150  -10.7160 C.3   127  TYR127      0.1605
    207  C        -19.4850  -31.1010  -11.0140 C.2   127  TYR127      0.2264
    208  O        -19.1960  -32.2860  -11.2260 O.2   127  TYR127     -0.2867
    209  CB       -21.4850  -29.8340  -11.9230 C.3   127  TYR127      0.0534
    210  CG       -21.2020  -30.6210  -13.1710 C.ar  127  TYR127     -0.0201
    211  CD1      -21.7760  -31.8680  -13.3790 C.ar  127  TYR127     -0.0009
    212  CD2      -20.2400  -30.1970  -14.0670 C.ar  127  TYR127     -0.0009
    213  CE1      -21.4600  -32.6320  -14.4710 C.ar  127  TYR127      0.0417
    214  CE2      -19.9010  -30.9340  -15.1290 C.ar  127  TYR127      0.0417
    215  CZ       -20.4930  -32.1610  -15.3480 C.ar  127  TYR127      0.1957
    216  OH       -20.0900  -32.8640  -16.4450 O.3   127  TYR127     -0.2866
    217  N        -18.0870  -34.9830  -11.0310 N.3   131  ALA131     -0.1245
    218  CA       -17.5750  -35.5490  -12.2610 C.3   131  ALA131      0.1562
    219  C        -16.0900  -35.8880  -12.1280 C.2   131  ALA131      0.2260
    220  O        -15.6180  -36.8570  -12.7100 O.2   131  ALA131     -0.2867
    221  CB       -17.8070  -34.5930  -13.3790 C.3   131  ALA131      0.0290
    222  N        -13.7950  -33.6750  -13.2210 N.3   133  ILE133     -0.1245
    223  CA       -13.0880  -32.8720  -14.2580 C.3   133  ILE133      0.1561
    224  C        -12.2890  -31.6730  -13.6990 C.2   133  ILE133      0.2260
    225  O        -11.2390  -31.2890  -14.2480 O.2   133  ILE133     -0.2867
    226  CB       -14.0850  -32.4520  -15.3880 C.3   133  ILE133      0.0252
    227  CG1      -13.3600  -31.8940  -16.6050 C.3   133  ILE133      0.0019
    228  CG2      -15.1770  -31.4860  -14.8950 C.3   133  ILE133      0.0019
    229  CD1      -14.3000  -31.6020  -17.6790 C.3   133  ILE133      0.0001
    230  N        -25.9280  -20.4570  -19.5020 N.3   157  VAL157     -0.1245
    231  CA       -25.6370  -21.4730  -20.5210 C.3   157  VAL157      0.1561
    232  C        -25.1880  -20.8830  -21.8800 C.2   157  VAL157      0.2260
    233  O        -24.3620  -21.4570  -22.5430 O.2   157  VAL157     -0.2867
    234  CB       -26.8120  -22.4530  -20.6590 C.3   157  VAL157      0.0252
    235  CG1      -27.9980  -21.7940  -21.2700 C.3   157  VAL157      0.0019
    236  CG2      -26.3860  -23.6700  -21.4270 C.3   157  VAL157      0.0019
    237  N        -21.5720  -21.9620  -23.3640 N.3   160  THR160     -0.1218
    238  CA       -21.4820  -22.5040  -24.7280 C.3   160  THR160      0.1862
    239  C        -20.4690  -21.7840  -25.5910 C.2   160  THR160      0.2287
    240  O        -19.6640  -22.4250  -26.2460 O.2   160  THR160     -0.2866
    241  CB       -22.8500  -22.4710  -25.4030 C.3   160  THR160      0.1770
    242  OG1      -23.7690  -23.2750  -24.6600 O.3   160  THR160     -0.2211
    243  CG2      -22.8090  -23.0350  -26.8200 C.3   160  THR160      0.0375
    244  N        -16.9990  -22.8390  -24.2400 N.3   163  HIS163     -0.1241
    245  CA       -16.7600  -24.2060  -24.7190 C.3   163  HIS163      0.1621
    246  C        -16.3450  -24.3020  -26.1690 C.2   163  HIS163      0.2264
    247  O        -15.4490  -25.0770  -26.4870 O.2   163  HIS163     -0.2867
    248  CB       -17.9770  -25.1080  -24.4630 C.3   163  HIS163      0.0745
    249  CG       -18.0100  -25.6280  -23.0770 C.ar  163  HIS163      0.0817
    250  ND1      -19.1780  -25.9740  -22.4400 N.ar  163  HIS163     -0.2268
    251  CD2      -17.0120  -25.8440  -22.1920 C.ar  163  HIS163      0.1154
    252  CE1      -18.8920  -26.3850  -21.2180 C.ar  163  HIS163      0.1986
    253  NE2      -17.5870  -26.3290  -21.0470 N.ar  163  HIS163     -0.2212
    254  N        -12.8610  -26.1290  -26.3590 N.3   167  TRP167     -0.1241
    255  CA       -12.8160  -27.4940  -26.8930 C.3   167  TRP167      0.1605
    256  C        -12.6660  -27.5790  -28.4140 C.2   167  TRP167      0.2264
    257  O        -12.1470  -28.5710  -28.9560 O.2   167  TRP167     -0.2867
    258  CB       -14.0720  -28.2430  -26.4750 C.3   167  TRP167      0.0550
    259  CG       -14.3320  -28.3710  -24.9700 C.ar  167  TRP167      0.0003
    260  CD1      -15.4810  -28.0110  -24.3020 C.ar  167  TRP167      0.0946
    261  CD2      -13.5010  -29.0240  -24.0020 C.ar  167  TRP167      0.0152
    262  NE1      -15.3800  -28.3530  -22.9720 N.ar  167  TRP167     -0.2442
    263  CE2      -14.1870  -28.9930  -22.7670 C.ar  167  TRP167      0.0810
    264  CE3      -12.2380  -29.6240  -24.0490 C.ar  167  TRP167      0.0012
    265  CZ2      -13.6510  -29.5340  -21.6110 C.ar  167  TRP167      0.0191
    266  CZ3      -11.7080  -30.1720  -22.8710 C.ar  167  TRP167      0.0001
    267  CH2      -12.4220  -30.0980  -21.6790 C.ar  167  TRP167      0.0015
    268  N        -11.0190  -24.1810  -17.3360 N.3   177  TYR177     -0.1241
    269  CA       -11.0860  -25.1710  -16.2660 C.3   177  TYR177      0.1605
    270  C         -9.9080  -24.9960  -15.3330 C.2   177  TYR177      0.2264
    271  O         -9.5100  -25.9360  -14.6480 O.2   177  TYR177     -0.2867
    272  CB       -11.1180  -26.6310  -16.8310 C.3   177  TYR177      0.0534
    273  CG       -12.4060  -26.9620  -17.5140 C.ar  177  TYR177     -0.0201
    274  CD1      -12.7100  -26.4800  -18.7910 C.ar  177  TYR177     -0.0009
    275  CD2      -13.3550  -27.7170  -16.8680 C.ar  177  TYR177     -0.0009
    276  CE1      -13.9490  -26.7930  -19.3950 C.ar  177  TYR177      0.0417
    277  CE2      -14.5650  -28.0180  -17.4610 C.ar  177  TYR177      0.0417
    278  CZ       -14.8600  -27.5640  -18.7000 C.ar  177  TYR177      0.1957
    279  OH       -16.1020  -27.9200  -19.1990 O.3   177  TYR177     -0.2866
@<TRIPOS>BOND
     1   134   135    2
     2   134   133    1
     3   132   133    1
     4   133   136    1
     5   123   122    2
     6   120   121    1
     7   136   137    1
     8   122   121    1
     9   121   124    1
    10   137   139   ar
    11   137   138   ar
    12   142   139   ar
    13   142   144   ar
    14   112   111    2
    15   139   141   ar
    16   101   100    2
    17   124   125    1
    18   111   110    1
    19   138   140   ar
    20   257   256    2
    21   144   145   ar
    22   256   255    1
    23   100    99    1
    24   100   109   am
    25    19    21   ar
    26    19    17   ar
    27   125   127   ar
    28   125   126   ar
    29   141   140   ar
    30   141   143   ar
    31    21    20   ar
    32    99    98    1
    33    99   102    1
    34   146   147    1
    35   127   129   ar
    36   110   109    1
    37   110   113    1
    38   145   143   ar
    39   126   128   ar
    40    17    16    1
    41    17    18   ar
    42   152   150    1
    43    20    18   ar
    44    16    13    1
    45   104   106   ar
    46   104   103   ar
    47   106   108   ar
    48   129   130   ar
    49   255   258    1
    50   255   254    1
    51   243   241    1
    52   128   130   ar
    53   102   103    1
    54   150   147    1
    55   150   151    1
    56   113   114    1
    57   103   105   ar
    58   147   148    1
    59   247   246    2
    60   258   259    1
    61   130   131    1
    62   240   239    2
    63   108   107   ar
    64   246   245    1
    65   105   107   ar
    66   148   149    2
    67    13    12    1
    68    13    14    1
    69    30    28   ar
    70    30    32   ar
    71    12     3   am
    72   239   238    1
    73   116   114   ar
    74   116   118   ar
    75   241   238    1
    76   241   242    1
    77   114   115   ar
    78    28    27   ar
    79    94    93    2
    80    32    31   ar
    81    14    15    2
    82   151   153    1
    83     1     2    1
    84    10     9    1
    85   259   260   ar
    86   259   261   ar
    87     5     2    1
    88     5     6    1
    89   238   237    1
    90   245   248    1
    91   245   244    1
    92    93    92    1
    93    27    26    1
    94    27    29   ar
    95    31    29   ar
    96     7     6    1
    97     7     8    1
    98   154   155    1
    99   248   249    1
   100     3     2    1
   101     3     4    2
   102   118   119   ar
   103     9     8    2
   104     9    11    1
   105   260   262   ar
   106    26    23    1
   107   115   117   ar
   108   264   261   ar
   109   264   266   ar
   110   261   263   ar
   111    91    92    1
   112    92    95    1
   113   158   155    1
   114   158   159    1
   115   119   117   ar
   116   164   166   ar
   117   164   161   ar
   118   155   156    1
   119   249   250   ar
   120   249   251   ar
   121   262   263   ar
   122    23    22    1
   123    23    24    1
   124   166   167   ar
   125    57    56    1
   126   266   267   ar
   127   263   265   ar
   128   233   232    2
   129   250   252   ar
   130   159   161   ar
   131   159   160   ar
   132   168   156   am
   133   168   169    1
   134   161   163   ar
   135    95    96    1
   136    95    97    1
   137   251   253   ar
   138   156   157    2
   139   232   231    1
   140    24    25    2
   141   267   265   ar
   142   167   165   ar
   143    50    49    1
   144    58    56    1
   145    56    53    1
   146   236   234    1
   147   169   170    1
   148    84    83    2
   149   235   234    1
   150   252   253   ar
   151   160   162   ar
   152   163   165   ar
   153   163   162   ar
   154   170   171    2
   155    52    53    1
   156   234   231    1
   157    83    82    1
   158   231   230    1
   159    53    54    1
   160    48    49    1
   161    48    45    1
   162    49    51    1
   163    81    82    1
   164    82    85    1
   165   276   274   ar
   166   276   278   ar
   167   279   278    1
   168    54    55    2
   169    45    46    1
   170    45    44    1
   171    46    47    2
   172   274   273   ar
   173    44    35   am
   174   278   277   ar
   175    33    34    1
   176   172   173    1
   177    85    86    1
   178    88    86   ar
   179    88    90   ar
   180    72    69    1
   181    86    87   ar
   182    90    89   ar
   183    87    89   ar
   184   229   227    1
   185    35    34    1
   186    35    36    2
   187   176   173    1
   188   176   177    1
   189   273   275   ar
   190   273   272    1
   191    34    37    1
   192   277   275   ar
   193    37    38    1
   194   173   174    1
   195   268   269    1
   196    40    38   ar
   197    40    42   ar
   198   189   190   ar
   199   189   187   ar
   200   190   188   ar
   201   187   185   ar
   202   188   186   ar
   203   185   186   ar
   204   185   184    1
   205   180   174   am
   206   180   181    1
   207   184   181    1
   208    69    68    1
   209    69    70    1
   210    68    61   am
   211   272   269    1
   212   179   177    1
   213   227   226    1
   214    38    39   ar
   215    59    60    1
   216   216   215    1
   217   174   175    2
   218    42    43   ar
   219    63    60    1
   220    63    64    1
   221   177   178    1
   222    65    64    1
   223    65    66    1
   224   269   270    1
   225   181   182    1
   226    70    71    2
   227    60    61    1
   228   204   203   ar
   229   204   202   ar
   230    61    62    2
   231   182   183    2
   232    66    67    1
   233   226   228    1
   234   226   223    1
   235   215   214   ar
   236   215   213   ar
   237   270   271    2
   238   203   201   ar
   239    39    41   ar
   240   202   200   ar
   241   214   212   ar
   242    43    41   ar
   243   213   211   ar
   244   223   224    1
   245   223   222    1
   246   225   224    2
   247   212   210   ar
   248   201   198   ar
   249   200   198   ar
   250   200   199   ar
   251    80    78    1
   252   198   196   ar
   253   221   218    1
   254   211   210   ar
   255   210   209    1
   256   199   197   ar
   257   220   219    2
   258    78    77    1
   259    77    79    1
   260    77    74    1
   261   218   219    1
   262   218   217    1
   263   196   197   ar
   264   196   195    1
   265    73    74    1
   266   209   206    1
   267    74    75    1
   268    75    76    2
   269   195   192    1
   270   208   207    2
   271   207   206    1
   272   206   205    1
   273   192   193    1
   274   192   191    1
   275   194   193    2
