@<TRIPOS>MOLECULE
tmp/1uhlB01.pdb
 227 216 0 0 0
SMALL
GASTEIGER

@<TRIPOS>ATOM
      1  N         83.2350  -12.6550   15.4580 N.3    31  PHE31      -0.1241
      2  CA        82.4370  -12.0300   16.5300 C.3    31  PHE31       0.1605
      3  C         83.1270  -10.8720   17.2150 C.2    31  PHE31       0.2264
      4  O         82.7120   -9.7650   16.9920 O.2    31  PHE31      -0.2867
      5  CB        81.9680  -13.0660   17.5550 C.3    31  PHE31       0.0534
      6  CG        81.3510  -12.4890   18.7890 C.ar   31  PHE31      -0.0203
      7  CD1       80.0070  -12.1800   18.8200 C.ar   31  PHE31      -0.0042
      8  CD2       82.1000  -12.3250   19.9370 C.ar   31  PHE31      -0.0042
      9  CE1       79.4430  -11.6770   19.9650 C.ar   31  PHE31      -0.0003
     10  CE2       81.5400  -11.8390   21.0830 C.ar   31  PHE31      -0.0003
     11  CZ        80.2170  -11.5010   21.0970 C.ar   31  PHE31      -0.0000
     12  N         82.6750   -7.8300   15.2770 N.3    34  PHE34      -0.1227
     13  CA        81.3680   -7.1850   15.4090 C.3    34  PHE34       0.1736
     14  C         81.3190   -6.3410   16.6700 C.2    34  PHE34       0.2596
     15  O         80.8870   -5.1990   16.6380 O.2    34  PHE34      -0.2718
     16  CB        80.2080   -8.1810   15.1880 C.3    34  PHE34       0.0547
     17  CG        79.9980   -8.5090   13.7170 C.ar   34  PHE34      -0.0202
     18  CD1       78.7750   -8.3510   13.1180 C.ar   34  PHE34      -0.0042
     19  CD2       81.0590   -8.8990   12.9220 C.ar   34  PHE34      -0.0042
     20  CE1       78.6090   -8.6150   11.7650 C.ar   34  PHE34      -0.0003
     21  CE2       80.8900   -9.1650   11.5670 C.ar   34  PHE34      -0.0003
     22  CZ        79.6640   -9.0070   10.9930 C.ar   34  PHE34      -0.0000
     23  N         81.8930   -6.8920   17.7260 N.am   35  THR35      -0.1953
     24  CA        82.1430   -6.2440   18.9990 C.3    35  THR35       0.1897
     25  C         82.9410   -4.9010   18.8810 C.2    35  THR35       0.2313
     26  O         82.4610   -3.8180   19.2870 O.2    35  THR35      -0.2863
     27  CB        82.8170   -7.3300   19.8930 C.3    35  THR35       0.1794
     28  OG1       81.9630   -7.6600   20.9820 O.3    35  THR35      -0.2208
     29  CG2       84.1050   -6.8550   20.5830 C.3    35  THR35       0.0378
     30  N         83.2020   -3.1280   16.4780 N.3    37  LEU37      -0.1231
     31  CA        82.3700   -2.2140   15.6780 C.3    37  LEU37       0.1693
     32  C         81.3100   -1.5460   16.5430 C.2    37  LEU37       0.2591
     33  O         81.2990   -0.3240   16.6670 O.2    37  LEU37      -0.2718
     34  CB        81.7600   -2.9130   14.4320 C.3    37  LEU37       0.0284
     35  CG        82.6140   -3.3070   13.1830 C.3    37  LEU37       0.0019
     36  CD1       81.8250   -4.0170   12.0740 C.3    37  LEU37       0.0001
     37  CD2       83.4730   -2.1370   12.5240 C.3    37  LEU37       0.0001
     38  N         80.4510   -2.3370   17.1700 N.am   38  ALA38      -0.1980
     39  CA        79.3650   -1.7840   17.9620 C.3    38  ALA38       0.1597
     40  C         79.8040   -0.6840   18.9820 C.2    38  ALA38       0.2287
     41  O         79.0680    0.2650   19.2150 O.2    38  ALA38      -0.2864
     42  CB        78.5840   -2.9230   18.6380 C.3    38  ALA38       0.0319
     43  N         80.1600    2.7140   17.1100 N.3    41  SER41      -0.1217
     44  CA        78.8300    3.2700   17.1510 C.3    41  SER41       0.1889
     45  C         78.5330    3.8300   18.5110 C.2    41  SER41       0.2288
     46  O         78.2570    5.0250   18.6310 O.2    41  SER41      -0.2866
     47  CB        77.8370    2.1980   16.8110 C.3    41  SER41       0.2089
     48  OG        78.3380    1.4610   15.7130 O.3    41  SER41      -0.2183
     49  N         70.8050    0.5310   20.1700 N.3    72  ILE72      -0.1245
     50  CA        70.6690   -0.3290   18.9810 C.3    72  ILE72       0.1561
     51  C         69.7860    0.3140   18.0130 C.2    72  ILE72       0.2260
     52  O         69.8910    0.0090   16.8540 O.2    72  ILE72      -0.2867
     53  CB        69.9620   -1.7220   19.1520 C.3    72  ILE72       0.0252
     54  CG1       68.8980   -1.6500   20.2770 C.3    72  ILE72       0.0019
     55  CG2       70.9560   -3.0180   18.9690 C.3    72  ILE72       0.0019
     56  CD1       69.1400   -0.4440   21.2940 C.3    72  ILE72       0.0001
     57  N         71.8400    2.3820   16.1950 N.3    75  MET75      -0.1230
     58  CA        72.8080    1.6440   15.4300 C.3    75  MET75       0.1702
     59  C         72.1970    0.8340   14.2580 C.2    75  MET75       0.2592
     60  O         72.8690    0.5880   13.2440 O.2    75  MET75      -0.2718
     61  CB        73.8350    0.9790   16.3450 C.3    75  MET75       0.0401
     62  CG        73.5910   -0.3670   16.8690 C.3    75  MET75       0.0596
     63  SD        75.1480   -0.8000   17.7910 S.3    75  MET75      -0.1393
     64  CE        75.0010    0.2760   19.2420 C.3    75  MET75       0.0692
     65  N         70.8960    0.5440   14.3690 N.am   76  LEU76      -0.1980
     66  CA        70.0890   -0.1990   13.4060 C.3    76  LEU76       0.1596
     67  C         69.6880    0.7540   12.3330 C.2    76  LEU76       0.2287
     68  O         69.4950    0.4020   11.1940 O.2    76  LEU76      -0.2864
     69  CB        68.8080   -0.6740   14.1010 C.3    76  LEU76       0.0297
     70  CG        68.8110   -2.0610   14.7650 C.3    76  LEU76       0.0022
     71  CD1       68.0650   -2.1190   16.1000 C.3    76  LEU76       0.0001
     72  CD2       68.2310   -2.9970   13.7980 C.3    76  LEU76       0.0001
     73  N         71.4640    3.2790   11.4220 N.3    78  GLU78      -0.1231
     74  CA        72.5920    3.5660   10.5910 C.3    78  GLU78       0.1699
     75  C         72.9270    2.3630    9.7950 C.2    78  GLU78       0.2592
     76  O         73.3440    2.4890    8.6750 O.2    78  GLU78      -0.2718
     77  CB        73.7870    4.0180   11.4150 C.3    78  GLU78       0.0402
     78  CG        73.5300    5.3370   12.1430 C.3    78  GLU78       0.1161
     79  CD        74.1210    6.5210   11.3950 C.2    78  GLU78       0.3649
     80  OE1       75.0260    6.2790   10.5190 O.co2  78  GLU78      -0.2457
     81  OE2       73.6820    7.6690   11.6960 O.co2  78  GLU78      -0.2457
     82  N         72.7200    1.1870   10.3630 N.am   79  THR79      -0.1953
     83  CA        73.0010   -0.0260    9.6130 C.3    79  THR79       0.1897
     84  C         72.1240   -0.0030    8.4070 C.2    79  THR79       0.2313
     85  O         72.5700   -0.3750    7.3190 O.2    79  THR79      -0.2863
     86  CB        72.7430   -1.2430   10.4250 C.3    79  THR79       0.1794
     87  OG1       73.5440   -1.1550   11.6240 O.3    79  THR79      -0.2208
     88  CG2       73.3170   -2.4390    9.6990 C.3    79  THR79       0.0378
     89  N         73.9320    3.0890    4.9130 N.3    82  ARG82      -0.1245
     90  CA        75.0300    2.0920    4.8980 C.3    82  ARG82       0.1563
     91  C         74.6180    0.6360    4.4750 C.2    82  ARG82       0.2260
     92  O         75.1720   -0.3260    4.9790 O.2    82  ARG82      -0.2867
     93  CB        75.7440    2.0290    6.2610 C.3    82  ARG82       0.0307
     94  CG        76.5630    3.2710    6.6490 C.3    82  ARG82       0.0489
     95  CD        76.0350    4.0590    7.9030 C.3    82  ARG82       0.2205
     96  NE        76.8120    5.2600    8.2150 N.pl3  82  ARG82      -0.0865
     97  CZ        77.8850    5.2850    9.0170 C.cat  82  ARG82       0.5346
     98  NH1       78.3060    4.1490    9.6020 N.pl3  82  ARG82       0.1354
     99  NH2       78.5360    6.4430    9.2480 N.pl3  82  ARG82       0.1354
    100  N         75.8100   -4.7490    3.8160 N.3    90  ILE90      -0.1231
    101  CA        75.9820   -3.4920    4.5800 C.3    90  ILE90       0.1692
    102  C         77.4700   -3.1150    4.6700 C.2    90  ILE90       0.2592
    103  O         78.2840   -3.9840    5.0060 O.2    90  ILE90      -0.2718
    104  CB        75.4430   -3.7120    6.0600 C.3    90  ILE90       0.0266
    105  CG1       73.9330   -3.6740    6.1320 C.3    90  ILE90       0.0019
    106  CG2       76.0590   -2.7680    7.1300 C.3    90  ILE90       0.0020
    107  CD1       73.4710   -4.7760    6.8730 C.3    90  ILE90       0.0001
    108  N         77.8320   -1.8410    4.4410 N.am   91  THR91      -0.1953
    109  CA        79.2360   -1.3610    4.4950 C.3    91  THR91       0.1897
    110  C         79.5120   -0.6190    5.7970 C.2    91  THR91       0.2313
    111  O         80.6640   -0.3380    6.1460 O.2    91  THR91      -0.2863
    112  CB        79.5220   -0.4330    3.2980 C.3    91  THR91       0.1794
    113  OG1       79.1740   -1.1040    2.0740 O.3    91  THR91      -0.2208
    114  CG2       81.0140   -0.1800    3.1370 C.3    91  THR91       0.0378
    115  N         79.1860   -6.6130    4.6020 N.3    95  TYR95      -0.1241
    116  CA        78.6470   -7.5590    5.5680 C.3    95  TYR95       0.1605
    117  C         77.3790   -8.3130    5.1230 C.2    95  TYR95       0.2264
    118  O         76.2700   -7.8560    5.2390 O.2    95  TYR95      -0.2867
    119  CB        78.5060   -6.8480    6.9230 C.3    95  TYR95       0.0534
    120  CG        79.8610   -6.5460    7.5460 C.ar   95  TYR95      -0.0201
    121  CD1       80.3510   -5.2540    7.6510 C.ar   95  TYR95      -0.0009
    122  CD2       80.6750   -7.5760    7.9910 C.ar   95  TYR95      -0.0009
    123  CE1       81.6180   -5.0070    8.1950 C.ar   95  TYR95       0.0417
    124  CE2       81.9390   -7.3410    8.5430 C.ar   95  TYR95       0.0417
    125  CZ        82.4080   -6.0670    8.6460 C.ar   95  TYR95       0.1957
    126  OH        83.6620   -5.8920    9.2250 O.3    95  TYR95      -0.2866
    127  N         77.2880  -12.2510    9.0980 N.3   100  PHE100     -0.1241
    128  CA        76.6420  -12.0620   10.4110 C.3   100  PHE100      0.1605
    129  C         76.5950  -13.4000   11.1290 C.2   100  PHE100      0.2264
    130  O         77.0780  -13.5500   12.2570 O.2   100  PHE100     -0.2867
    131  CB        75.2340  -11.4620   10.2340 C.3   100  PHE100      0.0534
    132  CG        75.1770   -9.9440   10.4280 C.ar  100  PHE100     -0.0203
    133  CD1       75.8930   -9.0760    9.5660 C.ar  100  PHE100     -0.0042
    134  CD2       74.4350   -9.3840   11.5050 C.ar  100  PHE100     -0.0042
    135  CE1       75.8620   -7.6750    9.7460 C.ar  100  PHE100     -0.0003
    136  CE2       74.3960   -7.9510   11.7180 C.ar  100  PHE100     -0.0003
    137  CZ        75.1250   -7.0950   10.8210 C.ar  100  PHE100     -0.0000
    138  N         76.5120  -14.9400   15.8310 N.3   105  LEU105     -0.1245
    139  CA        75.1060  -14.4080   15.7650 C.3   105  LEU105      0.1561
    140  C         74.0740  -15.3370   15.1320 C.2   105  LEU105      0.2260
    141  O         72.8830  -15.2760   15.4340 O.2   105  LEU105     -0.2867
    142  CB        75.0440  -13.0430   15.0620 C.3   105  LEU105      0.0270
    143  CG        76.1910  -12.0450   15.2530 C.3   105  LEU105      0.0019
    144  CD1       75.7460  -10.6700   14.8140 C.3   105  LEU105      0.0001
    145  CD2       76.6800  -11.9820   16.6710 C.3   105  LEU105      0.0001
    146  N         68.1760  -13.2530   14.8410 N.3   109  PHE109     -0.1241
    147  CA        68.3690  -11.8530   14.9720 C.3   109  PHE109      0.1605
    148  C         68.7160  -11.3890   13.5570 C.2   109  PHE109      0.2264
    149  O         68.1650  -10.3900   13.0620 O.2   109  PHE109     -0.2867
    150  CB        69.5900  -11.6720   15.8430 C.3   109  PHE109      0.0534
    151  CG        70.0030  -10.2630   16.0440 C.ar  109  PHE109     -0.0203
    152  CD1       69.2520   -9.4090   16.8480 C.ar  109  PHE109     -0.0042
    153  CD2       71.1890   -9.7940   15.4900 C.ar  109  PHE109     -0.0042
    154  CE1       69.6820   -8.0460   17.0650 C.ar  109  PHE109     -0.0003
    155  CE2       71.6090   -8.4820   15.6910 C.ar  109  PHE109     -0.0003
    156  CZ        70.8580   -7.5920   16.4680 C.ar  109  PHE109     -0.0000
    157  N         67.3980   -7.8890   11.3390 N.3   113  ILE113     -0.1245
    158  CA        68.3270   -6.8110   10.9980 C.3   113  ILE113      0.1561
    159  C         68.3080   -6.5320    9.4980 C.2   113  ILE113      0.2260
    160  O         68.3130   -5.3570    9.0770 O.2   113  ILE113     -0.2867
    161  CB        69.7910   -7.2010   11.3650 C.3   113  ILE113      0.0252
    162  CG1       69.8570   -7.8710   12.7060 C.3   113  ILE113      0.0019
    163  CG2       70.7370   -6.0310   11.4340 C.3   113  ILE113      0.0019
    164  CD1       68.8960   -7.3040   13.7290 C.3   113  ILE113      0.0001
    165  N         67.2590   -8.0970   19.6550 N.3   195  HIS195     -0.1241
    166  CA        68.6980   -7.9670   19.9130 C.3   195  HIS195      0.1621
    167  C         69.0670   -8.4140   21.3230 C.2   195  HIS195      0.2264
    168  O         70.1160   -9.0230   21.4690 O.2   195  HIS195     -0.2867
    169  CB        69.2180   -6.5810   19.6270 C.3   195  HIS195      0.0745
    170  CG        70.6070   -6.3950   20.0690 C.ar  195  HIS195      0.0817
    171  ND1       70.9260   -5.7830   21.2600 N.ar  195  HIS195     -0.2268
    172  CD2       71.7780   -6.7740   19.5150 C.ar  195  HIS195      0.1154
    173  CE1       72.2450   -5.7760   21.4180 C.ar  195  HIS195      0.1986
    174  NE2       72.7850   -6.3730   20.3710 N.ar  195  HIS195     -0.2212
    175  N         69.1370  -11.8160   21.4480 N.3   198  GLN198     -0.1231
    176  CA        70.3920  -12.2630   20.7980 C.3   198  GLN198      0.1698
    177  C         71.4910  -12.2520   21.7990 C.2   198  GLN198      0.2592
    178  O         72.2920  -13.1790   21.8190 O.2   198  GLN198     -0.2718
    179  CB        70.8210  -11.3820   19.6070 C.3   198  GLN198      0.0381
    180  CG        72.1940  -11.7190   18.9880 C.3   198  GLN198      0.0905
    181  CD        72.3130  -13.1490   18.4200 C.2   198  GLN198      0.2608
    182  OE1       72.5700  -14.1010   19.1690 O.2   198  GLN198     -0.2717
    183  NE2       72.1510  -13.2970   17.1010 N.am  198  GLN198     -0.0878
    184  N         71.5320  -11.1570   22.5790 N.am  199  VAL199     -0.1980
    185  CA        72.5240  -10.9240   23.6190 C.3   199  VAL199      0.1595
    186  C         72.3290  -12.0090   24.6650 C.2   199  VAL199      0.2287
    187  O         73.3050  -12.4610   25.2680 O.2   199  VAL199     -0.2864
    188  CB        72.4290   -9.5110   24.3060 C.3   199  VAL199      0.0276
    189  CG1       71.5240   -9.5340   25.6020 C.3   199  VAL199      0.0022
    190  CG2       73.8090   -9.0150   24.7130 C.3   199  VAL199      0.0022
    191  N         73.8020  -15.8410   23.5030 N.3   202  LEU202     -0.1245
    192  CA        75.1850  -16.1970   23.5990 C.3   202  LEU202      0.1561
    193  C         75.7530  -15.8540   25.0010 C.2   202  LEU202      0.2260
    194  O         76.8820  -16.1770   25.3080 O.2   202  LEU202     -0.2867
    195  CB        76.0150  -15.6400   22.4100 C.3   202  LEU202      0.0270
    196  CG        75.9360  -14.1730   21.8670 C.3   202  LEU202      0.0019
    197  CD1       77.1580  -13.2900   22.2440 C.3   202  LEU202      0.0001
    198  CD2       75.7360  -14.1190   20.3530 C.3   202  LEU202      0.0001
    199  N         82.5440   -7.0280   25.5320 N.3   210  PRO210     -0.2116
    200  CA        83.1260   -5.7000   25.8760 C.3   210  PRO210      0.1372
    201  C         82.5740   -4.8570   27.0610 C.2   210  PRO210      0.2244
    202  O         81.4830   -4.3740   26.9490 O.2   210  PRO210     -0.2868
    203  CB        82.9970   -4.9330   24.5600 C.3   210  PRO210      0.0268
    204  CG        83.0090   -6.0360   23.5630 C.3   210  PRO210      0.0207
    205  CD        82.0830   -7.0570   24.1340 C.3   210  PRO210      0.0892
    206  N         79.6130   -2.4740   25.8920 N.3   213  LEU213     -0.1245
    207  CA        78.4380   -3.2800   25.5740 C.3   213  LEU213      0.1561
    208  C         77.6100   -3.8710   26.7730 C.2   213  LEU213      0.2260
    209  O         76.3810   -3.6550   26.8580 O.2   213  LEU213     -0.2867
    210  CB        78.8490   -4.3470   24.5840 C.3   213  LEU213      0.0270
    211  CG        79.4850   -3.7490   23.3300 C.3   213  LEU213      0.0019
    212  CD1       79.4890   -4.7900   22.1750 C.3   213  LEU213      0.0001
    213  CD2       78.7750   -2.4750   22.9040 C.3   213  LEU213      0.0001
    214  N         73.8770   -2.7610   27.6700 N.3   217  TRP217     -0.1241
    215  CA        72.9950   -3.9170   27.4390 C.3   217  TRP217      0.1605
    216  C         72.6920   -4.6380   28.7500 C.2   217  TRP217      0.2264
    217  O         72.4020   -5.8300   28.7380 O.2   217  TRP217     -0.2867
    218  CB        73.6100   -4.8770   26.3650 C.3   217  TRP217      0.0550
    219  CG        73.7590   -4.2480   24.8960 C.ar  217  TRP217      0.0003
    220  CD1       74.6820   -4.5880   23.8770 C.ar  217  TRP217      0.0946
    221  CD2       72.9580   -3.2220   24.3500 C.ar  217  TRP217      0.0152
    222  NE1       74.4710   -3.8180   22.7570 N.ar  217  TRP217     -0.2442
    223  CE2       73.4220   -2.9720   23.0210 C.ar  217  TRP217      0.0810
    224  CE3       71.8990   -2.4530   24.8570 C.ar  217  TRP217      0.0012
    225  CZ2       72.8560   -1.9850   22.2180 C.ar  217  TRP217      0.0191
    226  CZ3       71.3160   -1.4530   24.0600 C.ar  217  TRP217      0.0001
    227  CH2       71.7960   -1.2250   22.7620 C.ar  217  TRP217      0.0015
@<TRIPOS>BOND
     1   113   112    1
     2   114   112    1
     3   112   109    1
     4   100   101    1
     5   108   109    1
     6   108   102   am
     7    91    90    1
     8    91    92    2
     9   109   110    1
    10   101   102    1
    11   101   104    1
    12   115   116    1
    13   102   103    2
    14    90    89    1
    15    90    93    1
    16   117   118    2
    17   117   116    1
    18   116   119    1
    19   110   111    2
    20   104   105    1
    21   104   106    1
    22   105   107    1
    23    93    94    1
    24    94    95    1
    25   119   120    1
    26    85    84    2
    27   120   121   ar
    28   120   122   ar
    29   121   123   ar
    30    95    96    1
    31   122   124   ar
    32   123   125   ar
    33    96    97    2
    34    84    83    1
    35   124   125   ar
    36   125   126    1
    37    76    75    2
    38    97    99    1
    39    97    98    1
    40   160   159    2
    41   127   128    1
    42   159   158    1
    43   133   135   ar
    44   133   132   ar
    45    83    82    1
    46    83    86    1
    47    88    86    1
    48   135   137   ar
    49    75    82   am
    50    75    74    1
    51   131   128    1
    52   131   132    1
    53   128   129    1
    54    86    87    1
    55   132   134   ar
    56    80    79   ar
    57    74    77    1
    58    74    73    1
    59   137   136   ar
    60    22    21   ar
    61    22    20   ar
    62   158   157    1
    63   158   161    1
    64   129   130    2
    65    68    67    2
    66   161   163    1
    67   161   162    1
    68    79    81   ar
    69    79    78    1
    70    77    78    1
    71   134   136   ar
    72    21    19   ar
    73    20    18   ar
    74    36    35    1
    75    67    66    1
    76    37    35    1
    77   162   164    1
    78    19    17   ar
    79   149   148    2
    80    18    17   ar
    81    35    34    1
    82    60    59    2
    83    66    69    1
    84    66    65    1
    85   148   147    1
    86    17    16    1
    87    72    70    1
    88    69    70    1
    89    59    65   am
    90    59    58    1
    91    34    31    1
    92    70    71    1
    93   144   143    1
    94   146   147    1
    95   147   150    1
    96   142   143    1
    97   142   139    1
    98   140   141    2
    99   140   139    1
   100    16    13    1
   101   143   145    1
   102    12    13    1
   103    13    14    1
   104    58    57    1
   105    58    61    1
   106     1     2    1
   107   153   155   ar
   108   153   151   ar
   109    31    30    1
   110    31    32    1
   111   155   156   ar
   112    48    47    1
   113   139   138    1
   114   150   151    1
   115   151   152   ar
   116    61    62    1
   117   156   154   ar
   118     2     3    1
   119     2     5    1
   120    32    33    2
   121    32    38   am
   122    15    14    2
   123    14    23   am
   124    47    44    1
   125   152   154   ar
   126    52    51    2
   127    62    63    1
   128     4     3    2
   129   183   181   am
   130    43    44    1
   131    44    45    1
   132    38    39    1
   133     5     6    1
   134    23    24    1
   135    63    64    1
   136    39    42    1
   137    39    40    1
   138    51    50    1
   139   181   180    1
   140   181   182    2
   141    45    46    2
   142     6     7   ar
   143     6     8   ar
   144     7     9   ar
   145    25    24    1
   146    25    26    2
   147    55    53    1
   148    50    53    1
   149    50    49    1
   150    40    41    2
   151   180   179    1
   152    24    27    1
   153    53    54    1
   154   172   170   ar
   155   172   174   ar
   156   179   176    1
   157   169   166    1
   158   169   170    1
   159   165   166    1
   160    27    29    1
   161    27    28    1
   162   166   167    1
   163     8    10   ar
   164     9    11   ar
   165   170   171   ar
   166    54    56    1
   167   198   196    1
   168   174   173   ar
   169   176   175    1
   170   176   177    1
   171    10    11   ar
   172   171   173   ar
   173   167   168    2
   174   177   178    2
   175   177   184   am
   176   196   197    1
   177   196   195    1
   178   212   211    1
   179   225   227   ar
   180   225   223   ar
   181   195   192    1
   182   184   185    1
   183   222   223   ar
   184   222   220   ar
   185   227   226   ar
   186   213   211    1
   187   223   221   ar
   188   211   210    1
   189   191   192    1
   190   204   205    1
   191   204   203    1
   192   192   193    1
   193   185   188    1
   194   185   186    1
   195   220   219   ar
   196   226   224   ar
   197   205   199    1
   198   188   190    1
   199   188   189    1
   200   221   224   ar
   201   221   219   ar
   202   203   200    1
   203   210   207    1
   204   186   187    2
   205   219   218    1
   206   193   194    2
   207   199   200    1
   208   207   206    1
   209   207   208    1
   210   200   201    1
   211   218   215    1
   212   208   209    2
   213   202   201    2
   214   215   214    1
   215   215   216    1
   216   217   216    2
