@<TRIPOS>MOLECULE
tmp/1uhlA01.pdb
 188 179 0 0 0
SMALL
GASTEIGER

@<TRIPOS>ATOM
      1  N         44.7640  -12.3470   37.9190 N.3    22  VAL22      -0.1245
      2  CA        45.2660  -12.9490   36.7090 C.3    22  VAL22       0.1561
      3  C         44.1370  -13.8050   36.2150 C.2    22  VAL22       0.2260
      4  O         43.9790  -14.0140   35.0450 O.2    22  VAL22      -0.2867
      5  CB        46.6020  -13.7090   36.9690 C.3    22  VAL22       0.0252
      6  CG1       46.9820  -14.4120   35.7810 C.3    22  VAL22       0.0019
      7  CG2       47.8000  -12.7140   37.3620 C.3    22  VAL22       0.0019
      8  N         41.8200  -11.2780   34.6610 N.3    25  ILE25      -0.1231
      9  CA        42.3440  -10.7320   33.4160 C.3    25  ILE25       0.1692
     10  C         42.1580  -11.7180   32.2750 C.2    25  ILE25       0.2592
     11  O         41.6180  -11.3320   31.2290 O.2    25  ILE25      -0.2718
     12  CB        43.8110  -10.3350   33.5490 C.3    25  ILE25       0.0266
     13  CG1       43.9580   -8.9300   34.1340 C.3    25  ILE25       0.0019
     14  CG2       44.5430  -10.4250   32.1660 C.3    25  ILE25       0.0020
     15  CD1       45.3030   -8.6840   34.6010 C.3    25  ILE25       0.0001
     16  N         42.5800  -12.9690   32.4730 N.am   26  CYS26      -0.1970
     17  CA        42.4990  -13.9970   31.4440 C.3    26  CYS26       0.1712
     18  C         41.1460  -14.2240   30.9980 C.2    26  CYS26       0.2296
     19  O         40.9260  -14.4070   29.8170 O.2    26  CYS26      -0.2864
     20  CB        43.0310  -15.3150   31.8980 C.3    26  CYS26       0.0983
     21  SG        44.8140  -15.1080   32.0260 S.3    26  CYS26      -0.0798
     22  N         38.8640  -12.0380   31.0990 N.3    28  ALA28      -0.1231
     23  CA        38.5010  -10.8440   30.3560 C.3    28  ALA28       0.1694
     24  C         39.1010  -10.8250   28.9360 C.2    28  ALA28       0.2591
     25  O         38.4750  -10.2620   28.0120 O.2    28  ALA28      -0.2718
     26  CB        38.9000   -9.6290   31.1140 C.3    28  ALA28       0.0304
     27  N         40.2940  -11.4310   28.7620 N.am   29  ALA29      -0.1980
     28  CA        40.9900  -11.3620   27.4690 C.3    29  ALA29       0.1597
     29  C         40.2430  -12.2350   26.4980 C.2    29  ALA29       0.2287
     30  O         39.7410  -11.7740   25.4580 O.2    29  ALA29      -0.2864
     31  CB        42.4790  -11.7520   27.5780 C.3    29  ALA29       0.0319
     32  N         36.7110  -10.8040   25.1560 N.3    32  GLN32      -0.1245
     33  CA        37.1470   -9.8090   24.2000 C.3    32  GLN32       0.1566
     34  C         37.8050  -10.3100   22.8940 C.2    32  GLN32       0.2260
     35  O         37.5550   -9.7440   21.7910 O.2    32  GLN32      -0.2867
     36  CB        38.1920   -8.9770   24.9550 C.3    32  GLN32       0.0367
     37  CG        37.5650   -8.1910   26.0250 C.3    32  GLN32       0.0905
     38  CD        36.2840   -7.5230   25.5180 C.2    32  GLN32       0.2608
     39  OE1       35.1980   -7.8840   25.9520 O.2    32  GLN32      -0.2717
     40  NE2       36.4130   -6.5900   24.5980 N.am   32  GLN32      -0.0878
     41  N         46.3110   -8.9700   18.1110 N.3    62  TRP62      -0.1227
     42  CA        45.3920   -9.0790   19.2520 C.3    62  TRP62       0.1737
     43  C         45.8550   -8.5050   20.5520 C.2    62  TRP62       0.2595
     44  O         45.0760   -7.7900   21.1130 O.2    62  TRP62      -0.2718
     45  CB        44.8710  -10.4970   19.5280 C.3    62  TRP62       0.0564
     46  CG        45.8390  -11.4670   20.1300 C.ar   62  TRP62       0.0003
     47  CD1       46.6230  -12.3440   19.4440 C.ar   62  TRP62       0.0946
     48  CD2       46.0780  -11.7150   21.5050 C.ar   62  TRP62       0.0152
     49  NE1       47.3810  -13.0970   20.3180 N.ar   62  TRP62      -0.2442
     50  CE2       47.0630  -12.7180   21.5940 C.ar   62  TRP62       0.0810
     51  CE3       45.5960  -11.1700   22.6730 C.ar   62  TRP62       0.0012
     52  CZ2       47.5890  -13.1750   22.8310 C.ar   62  TRP62       0.0191
     53  CZ3       46.0750  -11.6270   23.8890 C.ar   62  TRP62       0.0001
     54  CH2       47.0720  -12.6230   23.9660 C.ar   62  TRP62       0.0015
     55  N         47.0680   -8.7970   21.0730 N.am   63  ASN63      -0.1974
     56  CA        47.3960   -8.2810   22.4310 C.3    63  ASN63       0.1688
     57  C         47.5970   -6.8080   22.5330 C.2    63  ASN63       0.2292
     58  O         46.9840   -6.1300   23.3650 O.2    63  ASN63      -0.2864
     59  CB        48.4170   -9.0840   23.2200 C.3    63  ASN63       0.1181
     60  CG        49.8020   -8.5010   23.1550 C.2    63  ASN63       0.2629
     61  OD1       50.3880   -8.3670   22.0450 O.2    63  ASN63      -0.2716
     62  ND2       50.3700   -8.1790   24.3100 N.am   63  ASN63      -0.0877
     63  N         43.9810   -5.4140   22.5630 N.3    66  LEU66      -0.1231
     64  CA        43.1130   -5.4860   23.7140 C.3    66  LEU66       0.1693
     65  C         43.6060   -4.4340   24.6820 C.2    66  LEU66       0.2591
     66  O         42.8190   -3.7640   25.3700 O.2    66  LEU66      -0.2718
     67  CB        43.1430   -6.8780   24.3400 C.3    66  LEU66       0.0284
     68  CG        42.6490   -7.9840   23.4120 C.3    66  LEU66       0.0019
     69  CD1       42.3870   -9.2810   24.1800 C.3    66  LEU66       0.0001
     70  CD2       41.4180   -7.4480   22.5250 C.3    66  LEU66       0.0001
     71  N         44.9240   -4.3060   24.7600 N.am   67  ILE67      -0.1980
     72  CA        45.5130   -3.3760   25.7230 C.3    67  ILE67       0.1595
     73  C         45.0320   -1.9820   25.3960 C.2    67  ILE67       0.2287
     74  O         44.4750   -1.2940   26.2620 O.2    67  ILE67      -0.2864
     75  CB        47.0250   -3.4590   25.6370 C.3    67  ILE67       0.0276
     76  CG1       47.5050   -4.7530   26.2650 C.3    67  ILE67       0.0022
     77  CG2       47.6610   -2.2460   26.1880 C.3    67  ILE67       0.0022
     78  CD1       48.9870   -4.8400   26.2470 C.3    67  ILE67       0.0001
     79  N         42.6150   -0.8450   23.9040 N.3    69  SER69      -0.1202
     80  CA        41.2250   -0.7490   24.1580 C.3    69  SER69       0.2020
     81  C         40.9800   -0.6090   25.6400 C.2    69  SER69       0.2618
     82  O         40.1350    0.1630   25.9860 O.2    69  SER69      -0.2717
     83  CB        40.5060   -1.9760   23.5890 C.3    69  SER69       0.2103
     84  OG        39.6370   -1.5290   22.5550 O.3    69  SER69      -0.2182
     85  N         41.7120   -1.3080   26.5260 N.am   70  PHE70      -0.1975
     86  CA        41.3890   -1.2530   27.9610 C.3    70  PHE70       0.1639
     87  C         41.9740   -0.0490   28.6870 C.2    70  PHE70       0.2290
     88  O         41.4320    0.4980   29.6590 O.2    70  PHE70      -0.2864
     89  CB        41.5660   -2.6150   28.6810 C.3    70  PHE70       0.0560
     90  CG        42.9840   -2.9900   29.0230 C.ar   70  PHE70      -0.0200
     91  CD1       43.7370   -2.2480   29.9480 C.ar   70  PHE70      -0.0042
     92  CD2       43.5530   -4.1550   28.4550 C.ar   70  PHE70      -0.0042
     93  CE1       45.0550   -2.6420   30.2550 C.ar   70  PHE70      -0.0003
     94  CE2       44.8740   -4.5790   28.7730 C.ar   70  PHE70      -0.0003
     95  CZ        45.6400   -3.8450   29.6630 C.ar   70  PHE70      -0.0000
     96  N         39.6340    2.5600   27.8730 N.3    73  ARG73      -0.1245
     97  CA        38.3870    2.4680   28.6350 C.3    73  ARG73       0.1563
     98  C         38.6190    2.7340   30.1100 C.2    73  ARG73       0.2260
     99  O         37.7100    2.7500   30.8790 O.2    73  ARG73      -0.2867
    100  CB        37.7030    1.1290   28.3800 C.3    73  ARG73       0.0307
    101  CG        37.0570    0.4810   29.5490 C.3    73  ARG73       0.0489
    102  CD        36.3060   -0.8610   29.2120 C.3    73  ARG73       0.2205
    103  NE        37.1710   -2.0470   29.3360 N.pl3  73  ARG73      -0.0865
    104  CZ        37.5420   -2.7750   28.2990 C.cat  73  ARG73       0.5346
    105  NH1       37.0280   -2.4070   27.1240 N.pl3  73  ARG73       0.1354
    106  NH2       38.3590   -3.8700   28.4320 N.pl3  73  ARG73       0.1354
    107  N         38.5220   -3.9590   33.5600 N.3    83  LEU83      -0.1231
    108  CA        38.2660   -5.1500   32.7710 C.3    83  LEU83       0.1693
    109  C         36.9050   -5.0530   32.1460 C.2    83  LEU83       0.2591
    110  O         35.9730   -4.6200   32.8020 O.2    83  LEU83      -0.2718
    111  CB        38.3490   -6.3990   33.6890 C.3    83  LEU83       0.0284
    112  CG        39.7020   -6.6980   34.3970 C.3    83  LEU83       0.0019
    113  CD1       40.0620   -8.2010   34.5700 C.3    83  LEU83       0.0001
    114  CD2       40.7850   -6.0200   33.6290 C.3    83  LEU83       0.0001
    115  N         36.8100   -5.4640   30.8830 N.am   84  ALA84      -0.1980
    116  CA        35.5830   -5.6760   30.0730 C.3    84  ALA84       0.1597
    117  C         34.4830   -6.3390   30.8070 C.2    84  ALA84       0.2287
    118  O         33.3170   -6.2290   30.3900 O.2    84  ALA84      -0.2864
    119  CB        35.9110   -6.5840   28.8980 C.3    84  ALA84       0.0319
    120  N         53.2260   -8.8830   38.0980 N.3    99  VAL99      -0.1245
    121  CA        53.0970   -8.0210   36.9070 C.3    99  VAL99       0.1561
    122  C         53.3010   -6.5050   37.1900 C.2    99  VAL99       0.2260
    123  O         52.9410   -5.5830   36.4260 O.2    99  VAL99      -0.2867
    124  CB        51.7400   -8.3040   36.2090 C.3    99  VAL99       0.0252
    125  CG1       51.5040   -9.8050   36.0450 C.3    99  VAL99       0.0019
    126  CG2       50.6040   -7.7210   36.9810 C.3    99  VAL99       0.0019
    127  N         55.0050   -3.6180   34.3500 N.3   102  ILE102     -0.1231
    128  CA        54.3690   -3.2320   33.0640 C.3   102  ILE102      0.1692
    129  C         53.0080   -2.7640   33.4220 C.2   102  ILE102      0.2592
    130  O         52.4740   -1.8560   32.7630 O.2   102  ILE102     -0.2718
    131  CB        54.1820   -4.3130   31.7930 C.3   102  ILE102      0.0266
    132  CG1       54.2280   -5.7760   32.1700 C.3   102  ILE102      0.0019
    133  CG2       54.9580   -3.9310   30.4550 C.3   102  ILE102      0.0020
    134  CD1       53.0670   -6.1350   33.0040 C.3   102  ILE102      0.0001
    135  N         52.4010   -3.3650   34.4480 N.am  103  PHE103     -0.1976
    136  CA        51.1830   -2.7030   34.8750 C.3   103  PHE103      0.1639
    137  C         51.4520   -1.2250   35.0900 C.2   103  PHE103      0.2290
    138  O         50.7030   -0.4210   34.5040 O.2   103  PHE103     -0.2864
    139  CB        50.5560   -3.2770   36.0770 C.3   103  PHE103      0.0560
    140  CG        49.0620   -2.8680   36.2730 C.ar  103  PHE103     -0.0200
    141  CD1       48.0310   -3.6660   35.7480 C.ar  103  PHE103     -0.0042
    142  CD2       48.7110   -1.7960   37.0920 C.ar  103  PHE103     -0.0042
    143  CE1       46.7300   -3.3710   36.0250 C.ar  103  PHE103     -0.0003
    144  CE2       47.4350   -1.5180   37.3770 C.ar  103  PHE103     -0.0003
    145  CZ        46.4450   -2.2800   36.8410 C.ar  103  PHE103     -0.0000
    146  N         53.9180   -7.7740   28.2440 N.3   189  CYS189     -0.1235
    147  CA        52.6620   -8.4100   28.6770 C.3   189  CYS189      0.1677
    148  C         52.5550   -9.8190   28.1500 C.2   189  CYS189      0.2270
    149  O         51.9500  -10.6870   28.8290 O.2   189  CYS189     -0.2867
    150  CB        51.4380   -7.6790   28.1950 C.3   189  CYS189      0.0956
    151  SG        51.2740   -6.0040   28.7060 S.3   189  CYS189     -0.0801
    152  N         54.5440  -12.3960   30.0320 N.3   192  HIS192     -0.1226
    153  CA        53.8190  -12.7270   31.2540 C.3   192  HIS192      0.1752
    154  C         52.7140  -13.6890   30.9330 C.2   192  HIS192      0.2595
    155  O         52.6010  -14.6730   31.6110 O.2   192  HIS192     -0.2718
    156  CB        53.2110  -11.5010   31.9100 C.3   192  HIS192      0.0759
    157  CG        54.1890  -10.6640   32.6650 C.ar  192  HIS192      0.0818
    158  ND1       55.0020  -11.1750   33.6590 N.ar  192  HIS192     -0.2268
    159  CD2       54.4770   -9.3420   32.5800 C.ar  192  HIS192      0.1154
    160  CE1       55.7360  -10.1940   34.1560 C.ar  192  HIS192      0.1986
    161  NE2       55.4250   -9.0680   33.5390 N.ar  192  HIS192     -0.2212
    162  N         51.8740  -13.4490   29.9290 N.am  193  LEU193     -0.1980
    163  CA        50.8720  -14.4780   29.6400 C.3   193  LEU193      0.1596
    164  C         51.5810  -15.8410   29.3620 C.2   193  LEU193      0.2287
    165  O         51.0700  -16.9430   29.6850 O.2   193  LEU193     -0.2864
    166  CB        49.9560  -14.0740   28.4730 C.3   193  LEU193      0.0297
    167  CG        48.6990  -13.2190   28.7440 C.3   193  LEU193      0.0022
    168  CD1       48.3650  -13.1160   30.2260 C.3   193  LEU193      0.0001
    169  CD2       48.8570  -11.8570   28.1550 C.3   193  LEU193      0.0001
    170  N         52.4600  -17.3060   32.5790 N.3   196  PHE196     -0.1241
    171  CA        51.2210  -17.8010   33.2760 C.3   196  PHE196      0.1605
    172  C         50.6290  -19.0880   32.7100 C.2   196  PHE196      0.2264
    173  O         50.2110  -19.9620   33.4700 O.2   196  PHE196     -0.2867
    174  CB        50.1380  -16.7350   33.4570 C.3   196  PHE196      0.0534
    175  CG        50.5280  -15.6770   34.4390 C.ar  196  PHE196     -0.0203
    176  CD1       51.0260  -16.0400   35.7210 C.ar  196  PHE196     -0.0042
    177  CD2       50.4950  -14.3400   34.0900 C.ar  196  PHE196     -0.0042
    178  CE1       51.4640  -15.0630   36.6530 C.ar  196  PHE196     -0.0003
    179  CE2       50.9180  -13.3700   34.9970 C.ar  196  PHE196     -0.0003
    180  CZ        51.4180  -13.7200   36.2930 C.ar  196  PHE196     -0.0000
    181  N         41.8390  -17.7140   24.2300 N.3   208  LEU208     -0.1245
    182  CA        43.1160  -17.0840   24.4810 C.3   208  LEU208      0.1561
    183  C         44.2020  -18.1080   24.4090 C.2   208  LEU208      0.2260
    184  O         45.3150  -17.8510   23.9620 O.2   208  LEU208     -0.2867
    185  CB        43.0810  -16.4520   25.8360 C.3   208  LEU208      0.0270
    186  CG        44.3520  -16.1830   26.6160 C.3   208  LEU208      0.0019
    187  CD1       45.1440  -15.0380   25.9500 C.3   208  LEU208      0.0001
    188  CD2       43.8780  -15.8770   28.0830 C.3   208  LEU208      0.0001
@<TRIPOS>BOND
     1    41    42    1
     2    42    45    1
     3    42    43    1
     4    47    46   ar
     5    47    49   ar
     6    45    46    1
     7    46    48   ar
     8    49    50   ar
     9    43    55   am
    10    43    44    2
    11    55    56    1
    12    48    50   ar
    13    48    51   ar
    14    50    52   ar
    15    35    34    2
    16    61    60    2
    17    56    57    1
    18    56    59    1
    19    70    68    1
    20    57    58    2
    21    84    83    1
    22    63    64    1
    23    51    53   ar
    24    52    54   ar
    25    34    33    1
    26    60    59    1
    27    60    62   am
    28    68    69    1
    29    68    67    1
    30    83    80    1
    31    64    67    1
    32    64    65    1
    33    53    54   ar
    34    79    80    1
    35   184   183    2
    36    80    81    1
    37    33    36    1
    38    33    32    1
    39   181   182    1
    40   183   182    1
    41   182   185    1
    42    40    38   am
    43    65    71   am
    44    65    66    2
    45    71    72    1
    46    36    37    1
    47    73    72    1
    48    73    74    2
    49    30    29    2
    50    38    39    2
    51    38    37    1
    52    75    72    1
    53    75    77    1
    54    75    76    1
    55    81    82    2
    56    81    85   am
    57   185   186    1
    58   187   186    1
    59    78    76    1
    60    29    28    1
    61    85    86    1
    62   186   188    1
    63   105   104    1
    64    28    31    1
    65    28    27    1
    66    96    97    1
    67    86    89    1
    68    86    87    1
    69    25    24    2
    70   148   147    1
    71   148   149    2
    72   169   167    1
    73   150   147    1
    74   150   151    1
    75   146   147    1
    76   104   106    1
    77   104   103    2
    78   100    97    1
    79   100   101    1
    80    92    94   ar
    81    92    90   ar
    82   166   167    1
    83   166   163    1
    84    97    98    1
    85    89    90    1
    86    87    88    2
    87   167   168    1
    88    27    24   am
    89    94    95   ar
    90   119   116    1
    91    24    23    1
    92    90    91   ar
    93   102   103    1
    94   102   101    1
    95   164   163    1
    96   164   165    2
    97   163   162    1
    98    95    93   ar
    99    19    18    2
   100   162   154   am
   101    91    93   ar
   102   152   153    1
   103   116   117    1
   104   116   115    1
   105    98    99    2
   106    23    22    1
   107    23    26    1
   108   118   117    2
   109   133   131    1
   110   115   109   am
   111   154   153    1
   112   154   155    2
   113    18    17    1
   114    11    10    2
   115   153   156    1
   116    17    20    1
   117    17    16    1
   118   131   132    1
   119   131   128    1
   120    20    21    1
   121   156   157    1
   122   109   108    1
   123   109   110    2
   124    14    12    1
   125   132   134    1
   126    10    16   am
   127    10     9    1
   128   170   171    1
   129   159   157   ar
   130   159   161   ar
   131   157   158   ar
   132   172   171    1
   133   172   173    2
   134   130   129    2
   135   108   107    1
   136   108   111    1
   137   128   129    1
   138   128   127    1
   139   171   174    1
   140     9    12    1
   141     9     8    1
   142   129   135   am
   143   174   175    1
   144   161   160   ar
   145    12    13    1
   146   114   112    1
   147   158   160   ar
   148   111   112    1
   149   177   175   ar
   150   177   179   ar
   151    13    15    1
   152   112   113    1
   153   175   176   ar
   154   135   136    1
   155   138   137    2
   156   136   137    1
   157   136   139    1
   158   179   180   ar
   159     4     3    2
   160   176   178   ar
   161   141   143   ar
   162   141   140   ar
   163     6     5    1
   164   143   145   ar
   165   125   124    1
   166   139   140    1
   167   124   121    1
   168   124   126    1
   169     3     2    1
   170   140   142   ar
   171   180   178   ar
   172   123   122    2
   173     2     5    1
   174     2     1    1
   175   145   144   ar
   176   121   122    1
   177   121   120    1
   178     5     7    1
   179   142   144   ar
