@<TRIPOS>MOLECULE
tmp/1uhlB00.pdb
 137 130 0 0 0
SMALL
GASTEIGER

@<TRIPOS>ATOM
      1  N         78.5990    3.0100   19.5500 N.3    42  VAL42      -0.1231
      2  CA        78.1700    3.5050   20.8620 C.3    42  VAL42       0.1692
      3  C         78.8350    4.8610   21.1320 C.2    42  VAL42       0.2591
      4  O         78.1360    5.8410   21.3860 O.2    42  VAL42      -0.2718
      5  CB        78.2900    2.4230   21.9730 C.3    42  VAL42       0.0266
      6  CG1       77.9900    2.9670   23.3270 C.3    42  VAL42       0.0020
      7  CG2       77.3060    1.3390   21.7020 C.3    42  VAL42       0.0020
      8  N         80.1680    4.9200   21.0130 N.am   43  GLN43      -0.1979
      9  CA        80.9320    6.1880   20.8420 C.3    43  GLN43       0.1601
     10  C         80.2650    7.3260   20.0000 C.2    43  GLN43       0.2287
     11  O         79.9020    8.3620   20.5310 O.2    43  GLN43      -0.2864
     12  CB        82.2990    5.8830   20.2010 C.3    43  GLN43       0.0394
     13  CG        83.5630    6.0850   21.1190 C.3    43  GLN43       0.0908
     14  CD        84.3360    4.7740   21.3550 C.2    43  GLN43       0.2608
     15  OE1       85.1770    4.3590   20.5020 O.2    43  GLN43      -0.2717
     16  NE2       84.0330    4.1050   22.4800 N.am   43  GLN43      -0.0878
     17  N         76.8100    8.6690   21.5510 N.3    46  VAL46      -0.1245
     18  CA        76.9420    9.5580   22.7080 C.3    46  VAL46       0.1561
     19  C         77.5180   10.8520   22.2280 C.2    46  VAL46       0.2260
     20  O         77.2580   11.9340   22.7510 O.2    46  VAL46      -0.2867
     21  CB        77.8860    8.9700   23.7810 C.3    46  VAL46       0.0252
     22  CG1       77.2410    7.7250   24.4420 C.3    46  VAL46       0.0019
     23  CG2       79.2390    8.6260   23.1920 C.3    46  VAL46       0.0019
     24  N         75.3260   14.2830   22.7620 N.3    50  LYS50      -0.1245
     25  CA        75.8350   15.3970   23.5550 C.3    50  LYS50       0.1561
     26  C         75.5340   16.7330   22.8470 C.2    50  LYS50       0.2260
     27  O         75.1520   17.7060   23.4830 O.2    50  LYS50      -0.2867
     28  CB        77.3200   15.2360   23.7980 C.3    50  LYS50       0.0271
     29  CG        77.6320   14.3170   24.8970 C.3    50  LYS50       0.0035
     30  CD        79.0150   13.7970   24.6610 C.3    50  LYS50       0.0206
     31  CE        79.7310   13.4700   25.9530 C.3    50  LYS50       0.1093
     32  NZ        81.0460   14.2150   26.0690 N.3    50  LYS50      -0.1314
     33  N         70.4380   17.9820   25.5520 N.3    55  PHE55      -0.1227
     34  CA        70.8640   16.7030   26.0890 C.3    55  PHE55       0.1736
     35  C         71.8080   16.8180   27.3130 C.2    55  PHE55       0.2595
     36  O         71.6110   16.1270   28.3390 O.2    55  PHE55      -0.2718
     37  CB        71.4420   15.8140   24.9680 C.3    55  PHE55       0.0547
     38  CG        71.6890   14.3870   25.3990 C.ar   55  PHE55      -0.0202
     39  CD1       70.7060   13.4400   25.3200 C.ar   55  PHE55      -0.0042
     40  CD2       72.8870   14.0080   25.9460 C.ar   55  PHE55      -0.0042
     41  CE1       70.9350   12.1530   25.7610 C.ar   55  PHE55      -0.0003
     42  CE2       73.0900   12.7170   26.3530 C.ar   55  PHE55      -0.0003
     43  CZ        72.1230   11.8110   26.2570 C.ar   55  PHE55      -0.0000
     44  N         72.8330   17.6800   27.2410 N.am   56  LEU56      -0.1980
     45  CA        73.6530   17.8810   28.4560 C.3    56  LEU56       0.1596
     46  C         72.8640   18.4670   29.6220 C.2    56  LEU56       0.2287
     47  O         73.1480   18.1290   30.7640 O.2    56  LEU56      -0.2864
     48  CB        74.9270   18.6650   28.2100 C.3    56  LEU56       0.0297
     49  CG        75.8600   18.0090   27.2060 C.3    56  LEU56       0.0022
     50  CD1       76.7640   19.0980   26.5750 C.3    56  LEU56       0.0001
     51  CD2       76.6940   16.9200   27.8300 C.3    56  LEU56       0.0001
     52  N         72.3480   13.6900   34.2230 N.3    60  ARG60      -0.1231
     53  CA        73.0800   12.6830   33.4190 C.3    60  ARG60       0.1694
     54  C         72.6900   11.1700   33.5780 C.2    60  ARG60       0.2591
     55  O         73.0810   10.3200   32.7390 O.2    60  ARG60      -0.2718
     56  CB        74.6180   12.9170   33.3920 C.3    60  ARG60       0.0321
     57  CG        75.3660   12.2090   34.4420 C.3    60  ARG60       0.0489
     58  CD        74.6240   12.2510   35.7570 C.3    60  ARG60       0.2205
     59  NE        74.8150   10.9920   36.4500 N.pl3  60  ARG60      -0.0865
     60  CZ        75.5660   10.8490   37.5450 C.cat  60  ARG60       0.5346
     61  NH1       76.1640   11.9090   38.0930 N.pl3  60  ARG60       0.1354
     62  NH2       75.7160    9.6420   38.0900 N.pl3  60  ARG60       0.1354
     63  N         71.9060   10.8280   34.6070 N.am   61  GLU61      -0.1979
     64  CA        71.3100    9.4900   34.6300 C.3    61  GLU61       0.1602
     65  C         70.1760    9.3350   33.6060 C.2    61  GLU61       0.2287
     66  O         69.8760    8.2210   33.2020 O.2    61  GLU61      -0.2864
     67  CB        70.7280    9.1400   35.9850 C.3    61  GLU61       0.0415
     68  CG        71.6450    8.4140   36.9170 C.3    61  GLU61       0.1163
     69  CD        71.8620    9.3340   38.0680 C.2    61  GLU61       0.3649
     70  OE1       72.9750    9.3220   38.6580 O.co2  61  GLU61      -0.2457
     71  OE2       70.8930   10.1110   38.3420 O.co2  61  GLU61      -0.2457
     72  N         70.2770   11.2620   30.6430 N.3    63  GLN63      -0.1231
     73  CA        71.0310   11.1140   29.4300 C.3    63  GLN63       0.1698
     74  C         71.7800    9.8130   29.4500 C.2    63  GLN63       0.2592
     75  O         72.1330    9.3320   28.3780 O.2    63  GLN63      -0.2718
     76  CB        71.9370   12.2500   29.1790 C.3    63  GLN63       0.0381
     77  CG        73.0910   12.2800   30.1090 C.3    63  GLN63       0.0905
     78  CD        73.4560   13.7110   30.4520 C.2    63  GLN63       0.2608
     79  OE1       74.5680   14.1760   30.1100 O.2    63  GLN63      -0.2717
     80  NE2       72.5020   14.4390   31.0980 N.am   63  GLN63      -0.0878
     81  N         71.9900    9.1970   30.6160 N.am   64  ILE64      -0.1980
     82  CA        72.3980    7.8100   30.5200 C.3    64  ILE64       0.1595
     83  C         71.2130    6.9680   30.0120 C.2    64  ILE64       0.2287
     84  O         71.3070    6.2660   28.9960 O.2    64  ILE64      -0.2864
     85  CB        73.0400    7.2450   31.8080 C.3    64  ILE64       0.0276
     86  CG1       74.5370    6.9570   31.5590 C.3    64  ILE64       0.0022
     87  CG2       72.3990    5.8920   32.2100 C.3    64  ILE64       0.0022
     88  CD1       75.5620    7.6720   32.5130 C.3    64  ILE64       0.0001
     89  N         70.5890    7.1860   26.4620 N.3    67  LEU67      -0.1231
     90  CA        71.6220    6.6490   25.5680 C.3    67  LEU67       0.1693
     91  C         71.6060    5.1160   25.5530 C.2    67  LEU67       0.2591
     92  O         71.8960    4.4810   24.5320 O.2    67  LEU67      -0.2718
     93  CB        72.9960    7.2010   25.9050 C.3    67  LEU67       0.0284
     94  CG        73.2270    8.5240   25.1670 C.3    67  LEU67       0.0019
     95  CD1       74.3620    9.4010   25.7010 C.3    67  LEU67       0.0001
     96  CD2       73.3930    8.2740   23.6620 C.3    67  LEU67       0.0001
     97  N         71.1850    4.5330   26.6780 N.am   68  LYS68      -0.1980
     98  CA        71.4380    3.1430   26.9990 C.3    68  LYS68       0.1596
     99  C         70.5370    2.2640   26.1880 C.2    68  LYS68       0.2287
    100  O         70.8690    1.1330   25.8140 O.2    68  LYS68      -0.2864
    101  CB        71.0570    2.9540   28.4480 C.3    68  LYS68       0.0298
    102  CG        72.1840    2.7600   29.4210 C.3    68  LYS68       0.0038
    103  CD        72.0780    1.3740   29.9780 C.3    68  LYS68       0.0206
    104  CE        71.5590    1.3210   31.4020 C.3    68  LYS68       0.1093
    105  NZ        71.7940   -0.0920   31.8110 N.3    68  LYS68      -0.1314
    106  N         83.3140   -4.6390   28.1450 N.3   211  PRO211     -0.2102
    107  CA        82.8170   -3.7550   29.2030 C.3   211  PRO211      0.1504
    108  C         81.7200   -2.8070   28.7110 C.2   211  PRO211      0.2575
    109  O         80.6160   -2.8270   29.2940 O.2   211  PRO211     -0.2718
    110  CB        84.0770   -2.9800   29.6260 C.3   211  PRO211      0.0282
    111  CG        85.2720   -4.0360   29.3260 C.3   211  PRO211      0.0208
    112  CD        84.6500   -5.1740   28.4800 C.3   211  PRO211      0.0893
    113  N         81.9860   -2.0090   27.6620 N.am  212  LEU212     -0.1980
    114  CA        81.0150   -0.9780   27.2190 C.3   212  LEU212      0.1596
    115  C         79.6310   -1.5520   26.8510 C.2   212  LEU212      0.2287
    116  O         78.6220   -1.1630   27.4200 O.2   212  LEU212     -0.2864
    117  CB        81.5720   -0.1950   26.0590 C.3   212  LEU212      0.0297
    118  CG        81.3380    1.3070   26.0780 C.3   212  LEU212      0.0022
    119  CD1       81.4940    1.8230   24.6800 C.3   212  LEU212      0.0001
    120  CD2       80.0040    1.7510   26.6480 C.3   212  LEU212      0.0001
    121  N         77.6870   -2.7120   29.5290 N.3   215  GLU215     -0.1231
    122  CA        77.3230   -1.6410   30.3610 C.3   215  GLU215      0.1699
    123  C         75.9700   -1.1020   29.8830 C.2   215  GLU215      0.2592
    124  O         75.1240   -0.7560   30.7250 O.2   215  GLU215     -0.2718
    125  CB        78.4530   -0.6040   30.3830 C.3   215  GLU215      0.0402
    126  CG        78.4850    0.1200   31.7190 C.3   215  GLU215      0.1161
    127  CD        79.2810    1.3910   31.6840 C.2   215  GLU215      0.3649
    128  OE1       78.7810    2.3950   32.2850 O.co2 215  GLU215     -0.2457
    129  OE2       80.3900    1.3560   31.0650 O.co2 215  GLU215     -0.2457
    130  N         75.7630   -1.0420   28.5560 N.am  216  ILE216     -0.1980
    131  CA        74.5290   -0.4820   28.0240 C.3   216  ILE216      0.1595
    132  C         73.4640   -1.5430   28.0460 C.2   216  ILE216      0.2287
    133  O         72.3050   -1.2560   28.3860 O.2   216  ILE216     -0.2864
    134  CB        74.6430    0.0150   26.5730 C.3   216  ILE216      0.0276
    135  CG1       75.7470   -0.6990   25.8330 C.3   216  ILE216      0.0022
    136  CG2       74.7900    1.4820   26.4940 C.3   216  ILE216      0.0022
    137  CD1       75.4580   -0.8090   24.3500 C.3   216  ILE216      0.0001
@<TRIPOS>BOND
     1     1     2    1
     2    10    11    2
     3    10     9    1
     4    12     9    1
     5    12    13    1
     6    15    14    2
     7     9     8    1
     8     2     3    1
     9     2     5    1
    10     8     3   am
    11    13    14    1
    12     3     4    2
    13    14    16   am
    14    17    18    1
    15     7     5    1
    16     5     6    1
    17    19    18    1
    18    19    20    2
    19    18    21    1
    20    24    25    1
    21    26    27    2
    22    26    25    1
    23    23    21    1
    24    25    28    1
    25    96    94    1
    26    21    22    1
    27    28    29    1
    28   137   135    1
    29    92    91    2
    30    30    29    1
    31    30    31    1
    32   119   118    1
    33    37    38    1
    34    37    34    1
    35    94    95    1
    36    94    93    1
    37    39    38   ar
    38    39    41   ar
    39    38    40   ar
    40    33    34    1
    41    91    90    1
    42    91    97   am
    43    90    93    1
    44    90    89    1
    45    41    43   ar
    46   100    99    2
    47   135   134    1
    48    40    42   ar
    49    31    32    1
    50   117   118    1
    51   117   114    1
    52   118   120    1
    53    34    35    1
    54    99    98    1
    55    43    42   ar
    56   136   134    1
    57   134   131    1
    58    50    49    1
    59    97    98    1
    60   115   114    1
    61   115   116    2
    62    98   101    1
    63    49    51    1
    64    49    48    1
    65   114   113    1
    66    44    35   am
    67    44    45    1
    68    35    36    2
    69   113   108   am
    70   131   132    1
    71   131   130    1
    72   132   133    2
    73   106   112    1
    74   106   107    1
    75    48    45    1
    76    75    74    2
    77   101   102    1
    78    45    46    1
    79   112   111    1
    80   130   123   am
    81   108   107    1
    82   108   109    2
    83    84    83    2
    84    76    73    1
    85    76    77    1
    86   107   110    1
    87   111   110    1
    88   102   103    1
    89    73    74    1
    90    73    72    1
    91    74    81   am
    92   121   122    1
    93    46    47    2
    94   123   122    1
    95   123   124    2
    96   103   104    1
    97    83    82    1
    98    77    78    1
    99    79    78    2
   100   122   125    1
   101   125   126    1
   102    78    80   am
   103    82    81    1
   104    82    85    1
   105   129   127   ar
   106   104   105    1
   107    86    85    1
   108    86    88    1
   109   127   126    1
   110   127   128   ar
   111    85    87    1
   112    55    54    2
   113    66    65    2
   114    56    53    1
   115    56    57    1
   116    53    54    1
   117    53    52    1
   118    54    63   am
   119    65    64    1
   120    57    58    1
   121    63    64    1
   122    64    67    1
   123    58    59    1
   124    67    68    1
   125    59    60    2
   126    68    69    1
   127    60    62    1
   128    60    61    1
   129    69    71   ar
   130    69    70   ar
