@<TRIPOS>MOLECULE
tmp/1uhvB00.pdb
 123 121 0 0 0
SMALL
GASTEIGER

@<TRIPOS>ATOM
      1  N         25.6880  -11.6710   70.4380 N.3    54  HIS54      -0.1241
      2  CA        26.1640  -11.7880   71.8160 C.3    54  HIS54       0.1621
      3  C         25.2750  -10.9510   72.7160 C.2    54  HIS54       0.2264
      4  O         24.3610  -10.2780   72.2390 O.2    54  HIS54      -0.2867
      5  CB        27.5780  -11.2140   71.9770 C.3    54  HIS54       0.0745
      6  CG        28.5070  -11.4830   70.8330 C.ar   54  HIS54       0.0817
      7  ND1       28.7990  -12.7540   70.3860 N.ar   54  HIS54      -0.2268
      8  CD2       29.2930  -10.6430   70.1150 C.ar   54  HIS54       0.1154
      9  CE1       29.7280  -12.6860   69.4490 C.ar   54  HIS54       0.1986
     10  NE2       30.0460  -11.4160   69.2660 N.ar   54  HIS54      -0.2212
     11  N         35.1400   -5.0400   74.2790 N.3   115  PHE115     -0.1241
     12  CA        34.3640   -4.0650   73.5130 C.3   115  PHE115      0.1605
     13  C         34.0940   -2.7470   74.2300 C.2   115  PHE115      0.2264
     14  O         34.4500   -2.5480   75.3910 O.2   115  PHE115     -0.2867
     15  CB        33.0130   -4.6610   73.1100 C.3   115  PHE115      0.0534
     16  CG        33.1140   -5.8860   72.2600 C.ar  115  PHE115     -0.0203
     17  CD1       32.2320   -6.9520   72.4540 C.ar  115  PHE115     -0.0042
     18  CD2       34.0690   -5.9750   71.2520 C.ar  115  PHE115     -0.0042
     19  CE1       32.2960   -8.0940   71.6540 C.ar  115  PHE115     -0.0003
     20  CE2       34.1460   -7.1090   70.4420 C.ar  115  PHE115     -0.0003
     21  CZ        33.2570   -8.1720   70.6430 C.ar  115  PHE115     -0.0000
     22  N         31.5980  -17.2640   73.2140 N.3   159  ASN159     -0.1225
     23  CA        32.1220  -16.8040   71.9290 C.3   159  ASN159      0.1785
     24  C         33.6540  -16.7830   71.9270 C.2   159  ASN159      0.2597
     25  O         34.2670  -16.3000   72.8650 O.2   159  ASN159     -0.2718
     26  CB        31.6060  -15.3910   71.6340 C.3   159  ASN159      0.1169
     27  CG        32.0040  -14.9000   70.2510 C.2   159  ASN159      0.2627
     28  OD1       31.4550  -15.3400   69.2450 O.2   159  ASN159     -0.2716
     29  ND2       32.9700  -13.9950   70.1970 N.am  159  ASN159     -0.0877
     30  N         34.2520  -17.3050   70.8630 N.am  160  GLU160     -0.1979
     31  CA        35.7080  -17.3520   70.6920 C.3   160  GLU160      0.1602
     32  C         36.5020  -17.4430   72.0000 C.2   160  GLU160      0.2287
     33  O         37.3100  -16.5680   72.3110 O.2   160  GLU160     -0.2864
     34  CB        36.1580  -16.1250   69.8920 C.3   160  GLU160      0.0415
     35  CG        35.3070  -15.8900   68.6430 C.3   160  GLU160      0.1163
     36  CD        35.8110  -14.7500   67.7700 C.2   160  GLU160      0.3649
     37  OE1       36.1440  -13.6780   68.3160 O.co2 160  GLU160     -0.2457
     38  OE2       35.8580  -14.9220   66.5340 O.co2 160  GLU160     -0.2457
     39  N         38.0100  -12.5360   74.6910 N.3   166  PHE166     -0.1241
     40  CA        36.6500  -12.9790   75.0000 C.3   166  PHE166      0.1605
     41  C         36.5590  -13.9490   76.1810 C.2   166  PHE166      0.2264
     42  O         35.4880  -14.1320   76.7670 O.2   166  PHE166     -0.2867
     43  CB        36.0150  -13.6300   73.7680 C.3   166  PHE166      0.0534
     44  CG        35.7410  -12.6720   72.6480 C.ar  166  PHE166     -0.0203
     45  CD1       36.7010  -12.4220   71.6760 C.ar  166  PHE166     -0.0042
     46  CD2       34.5220  -12.0040   72.5740 C.ar  166  PHE166     -0.0042
     47  CE1       36.4520  -11.5180   70.6420 C.ar  166  PHE166     -0.0003
     48  CE2       34.2610  -11.1010   71.5500 C.ar  166  PHE166     -0.0003
     49  CZ        35.2310  -10.8570   70.5780 C.ar  166  PHE166     -0.0000
     50  N         36.7840  -15.8130   58.6930 N.3   230  TYR230     -0.1241
     51  CA        37.0880  -14.5100   58.1190 C.3   230  TYR230      0.1605
     52  C         38.2570  -14.6560   57.1480 C.2   230  TYR230      0.2264
     53  O         39.0970  -15.5390   57.3100 O.2   230  TYR230     -0.2867
     54  CB        37.4340  -13.5100   59.2220 C.3   230  TYR230      0.0534
     55  CG        36.2300  -13.0990   60.0380 C.ar  230  TYR230     -0.0201
     56  CD1       35.8450  -13.8180   61.1710 C.ar  230  TYR230     -0.0009
     57  CD2       35.4420  -12.0240   59.6440 C.ar  230  TYR230     -0.0009
     58  CE1       34.6960  -13.4720   61.8900 C.ar  230  TYR230      0.0417
     59  CE2       34.2980  -11.6730   60.3480 C.ar  230  TYR230      0.0417
     60  CZ        33.9260  -12.3980   61.4680 C.ar  230  TYR230      0.1957
     61  OH        32.7730  -12.0510   62.1430 O.3   230  TYR230     -0.2866
     62  N         29.3150  -17.1190   62.4070 N.3   277  GLU277     -0.1245
     63  CA        29.7360  -15.7660   62.0930 C.3   277  GLU277      0.1567
     64  C         30.8390  -15.7620   61.0480 C.2   277  GLU277      0.2260
     65  O         31.8240  -16.4920   61.1770 O.2   277  GLU277     -0.2867
     66  CB        30.1060  -14.9990   63.3690 C.3   277  GLU277      0.0388
     67  CG        31.5030  -14.4160   63.4290 C.3   277  GLU277      0.1160
     68  CD        31.7700  -13.7020   64.7500 C.2   277  GLU277      0.3649
     69  OE1       32.9700  -12.9970   64.9350 O.co2 277  GLU277     -0.2457
     70  OE2       30.9120  -13.7670   65.6580 O.co2 277  GLU277     -0.2457
     71  N         36.9420   -8.8680   59.7880 N.3   282  TYR282     -0.1241
     72  CA        36.3610   -9.1290   61.1010 C.3   282  TYR282      0.1605
     73  C         36.2730   -7.8440   61.9190 C.2   282  TYR282      0.2264
     74  O         35.9680   -7.8790   63.1020 O.2   282  TYR282     -0.2867
     75  CB        37.1910  -10.1870   61.8500 C.3   282  TYR282      0.0534
     76  CG        38.6840   -9.9150   61.8840 C.ar  282  TYR282     -0.0201
     77  CD1       39.1980   -8.8060   62.5610 C.ar  282  TYR282     -0.0009
     78  CD2       39.5860  -10.7690   61.2390 C.ar  282  TYR282     -0.0009
     79  CE1       40.5710   -8.5560   62.5980 C.ar  282  TYR282      0.0417
     80  CE2       40.9610  -10.5240   61.2690 C.ar  282  TYR282      0.0417
     81  CZ        41.4430   -9.4160   61.9500 C.ar  282  TYR282      0.1957
     82  OH        42.7970   -9.1590   61.9810 O.3   282  TYR282     -0.2866
     83  N         34.5880   -3.9830   62.5740 N.3   284  PRO284     -0.2116
     84  CA        33.3500   -3.2330   62.3330 C.3   284  PRO284      0.1372
     85  C         33.5980   -1.8320   61.7750 C.2   284  PRO284      0.2244
     86  O         32.6770   -1.0230   61.6700 O.2   284  PRO284     -0.2868
     87  CB        32.7000   -3.2100   63.7100 C.3   284  PRO284      0.0268
     88  CG        33.8730   -3.0900   64.6020 C.3   284  PRO284      0.0207
     89  CD        34.8400   -4.1070   64.0200 C.3   284  PRO284      0.0892
     90  N         27.8140  -11.9200   59.3360 N.3   315  TRP315     -0.1241
     91  CA        27.9340  -10.9450   60.4170 C.3   315  TRP315      0.1605
     92  C         28.2270   -9.5830   59.7670 C.2   315  TRP315      0.2264
     93  O         29.3370   -9.3680   59.2670 O.2   315  TRP315     -0.2867
     94  CB        29.0870  -11.4080   61.3300 C.3   315  TRP315      0.0550
     95  CG        29.3030  -10.6710   62.6360 C.ar  315  TRP315      0.0003
     96  CD1       30.1760   -9.6410   62.8650 C.ar  315  TRP315      0.0946
     97  CD2       28.6900  -10.9630   63.9020 C.ar  315  TRP315      0.0152
     98  NE1       30.1470   -9.2820   64.1890 N.ar  315  TRP315     -0.2442
     99  CE2       29.2440  -10.0740   64.8490 C.ar  315  TRP315      0.0810
    100  CE3       27.7280  -11.8880   64.3270 C.ar  315  TRP315      0.0012
    101  CZ2       28.8660  -10.0830   66.1970 C.ar  315  TRP315      0.0191
    102  CZ3       27.3550  -11.8980   65.6650 C.ar  315  TRP315      0.0001
    103  CH2       27.9250  -10.9990   66.5840 C.ar  315  TRP315      0.0015
    104  N         30.4520   -2.5260   69.1520 N.3   323  GLU323     -0.1245
    105  CA        31.6970   -3.0660   69.6870 C.3   323  GLU323      0.1567
    106  C         32.8220   -2.0430   69.7000 C.2   323  GLU323      0.2260
    107  O         33.7130   -2.1120   70.5390 O.2   323  GLU323     -0.2867
    108  CB        32.1430   -4.2790   68.8910 C.3   323  GLU323      0.0388
    109  CG        31.1890   -5.4330   68.9480 C.3   323  GLU323      0.1160
    110  CD        31.7170   -6.6060   68.1630 C.2   323  GLU323      0.3649
    111  OE1       32.6540   -6.4000   67.3540 O.co2 323  GLU323     -0.2457
    112  OE2       31.1940   -7.7220   68.3440 O.co2 323  GLU323     -0.2457
    113  N         29.6900   -4.0390   59.6930 N.3   335  PHE335     -0.1241
    114  CA        29.4660   -5.3990   59.2160 C.3   335  PHE335      0.1605
    115  C         28.1390   -5.5130   58.4840 C.2   335  PHE335      0.2264
    116  O         27.9530   -6.4050   57.6670 O.2   335  PHE335     -0.2867
    117  CB        29.4420   -6.3850   60.3870 C.3   335  PHE335      0.0534
    118  CG        30.7800   -6.6040   61.0460 C.ar  335  PHE335     -0.0203
    119  CD1       30.9400   -6.3720   62.4090 C.ar  335  PHE335     -0.0042
    120  CD2       31.8650   -7.0920   60.3180 C.ar  335  PHE335     -0.0042
    121  CE1       32.1580   -6.6250   63.0420 C.ar  335  PHE335     -0.0003
    122  CE2       33.0920   -7.3490   60.9440 C.ar  335  PHE335     -0.0003
    123  CZ        33.2370   -7.1150   62.3100 C.ar  335  PHE335     -0.0000
@<TRIPOS>BOND
     1    52    53    2
     2    52    51    1
     3   116   115    2
     4    51    50    1
     5    51    54    1
     6   115   114    1
     7   114   113    1
     8   114   117    1
     9    54    55    1
    10    93    92    2
    11    90    91    1
    12    57    55   ar
    13    57    59   ar
    14    92    91    1
    15    71    72    1
    16    55    56   ar
    17   120   122   ar
    18   120   118   ar
    19    59    60   ar
    20   117   118    1
    21    91    94    1
    22   122   123   ar
    23   118   119   ar
    24    64    65    2
    25    64    63    1
    26    72    75    1
    27    72    73    1
    28    56    58   ar
    29    78    80   ar
    30    78    76   ar
    31    80    81   ar
    32    94    95    1
    33    60    58   ar
    34    60    61    1
    35    86    85    2
    36    85    84    1
    37    75    76    1
    38    76    77   ar
    39    73    74    2
    40    81    82    1
    41    81    79   ar
    42    63    62    1
    43    63    66    1
    44   123   121   ar
    45    84    83    1
    46    84    87    1
    47   119   121   ar
    48    77    79   ar
    49    83    89    1
    50    95    96   ar
    51    95    97   ar
    52    96    98   ar
    53    66    67    1
    54    67    68    1
    55    87    88    1
    56    97   100   ar
    57    97    99   ar
    58    89    88    1
    59    98    99   ar
    60   100   102   ar
    61    68    69   ar
    62    68    70   ar
    63    99   101   ar
    64   102   103   ar
    65   101   103   ar
    66    38    36   ar
    67   111   110   ar
    68    36    37   ar
    69    36    35    1
    70   110   112   ar
    71   110   109    1
    72    35    34    1
    73   108   109    1
    74   108   105    1
    75   104   105    1
    76    28    27    2
    77    10     9   ar
    78    10     8   ar
    79     9     7   ar
    80   105   106    1
    81   106   107    2
    82    34    31    1
    83     8     6   ar
    84    29    27   am
    85    27    26    1
    86     7     6   ar
    87     1     2    1
    88    20    21   ar
    89    20    18   ar
    90    49    47   ar
    91    49    48   ar
    92    47    45   ar
    93    21    19   ar
    94    31    30    1
    95    31    32    1
    96     6     5    1
    97    30    24   am
    98    18    16   ar
    99    48    46   ar
   100    26    23    1
   101    19    17   ar
   102    45    44   ar
   103     2     5    1
   104     2     3    1
   105    24    23    1
   106    24    25    2
   107    23    22    1
   108    32    33    2
   109     4     3    2
   110    16    17   ar
   111    16    15    1
   112    46    44   ar
   113    44    43    1
   114    15    12    1
   115    12    13    1
   116    12    11    1
   117    43    40    1
   118    13    14    2
   119    39    40    1
   120    40    41    1
   121    41    42    2
