@<TRIPOS>MOLECULE
tmp/1ui0A00.pdb
 71 67 0 0 0
SMALL
GASTEIGER

@<TRIPOS>ATOM
      1  N         20.3370    6.9820    7.2910 N.3    40  GLU40      -0.1231
      2  CA        21.3100    6.3590    6.4000 C.3    40  GLU40       0.1699
      3  C         22.2290    5.3580    7.0980 C.2    40  GLU40       0.2592
      4  O         22.2240    4.1670    6.7820 O.2    40  GLU40      -0.2718
      5  CB        22.1410    7.4510    5.7230 C.3    40  GLU40       0.0402
      6  CG        23.1230    6.9510    4.6900 C.3    40  GLU40       0.1161
      7  CD        23.9560    8.0710    4.1070 C.2    40  GLU40       0.3649
      8  OE1       23.4500    8.8010    3.2300 O.co2  40  GLU40      -0.2457
      9  OE2       25.1170    8.2340    4.5340 O.co2  40  GLU40      -0.2457
     10  N         23.0370    5.8600    8.0260 N.am   41  GLY41      -0.1957
     11  CA        23.9630    5.0120    8.7520 C.3    41  GLY41       0.1869
     12  C         24.5280    5.7550    9.9430 C.2    41  GLY41       0.2309
     13  O         24.3740    6.9690   10.0400 O.2    41  GLY41      -0.2863
     14  N         26.9640    7.7320   12.5920 N.3    43  GLY43      -0.1225
     15  CA        28.0150    8.7260   12.5000 C.3    43  GLY43       0.1811
     16  C         29.0010    8.3880   13.6090 C.2    43  GLY43       0.2280
     17  O         28.9080    7.3190   14.2210 O.2    43  GLY43      -0.2866
     18  N         27.3390    7.8750   17.1840 N.3    46  GLU46      -0.1245
     19  CA        26.5060    6.6780   17.1760 C.3    46  GLU46       0.1567
     20  C         27.4040    5.4500   17.3000 C.2    46  GLU46       0.2260
     21  O         27.1220    4.5320   18.0650 O.2    46  GLU46      -0.2867
     22  CB        25.6980    6.5870   15.8770 C.3    46  GLU46       0.0388
     23  CG        24.5790    7.6150   15.7300 C.3    46  GLU46       0.1160
     24  CD        25.0710    9.0360   15.4960 C.2    46  GLU46       0.3649
     25  OE1       26.1650    9.2200   14.9310 O.co2  46  GLU46      -0.2457
     26  OE2       24.3400    9.9780   15.8580 O.co2  46  GLU46      -0.2457
     27  N         21.3740    5.2450   17.8230 N.3    52  PRO52      -0.2102
     28  CA        21.1720    6.0330   16.6040 C.3    52  PRO52       0.1504
     29  C         20.8530    7.4890   16.9140 C.2    52  PRO52       0.2575
     30  O         20.3260    7.8070   17.9820 O.2    52  PRO52      -0.2718
     31  CB        19.9740    5.3470   15.9550 C.3    52  PRO52       0.0282
     32  CG        19.1490    4.9540   17.1430 C.3    52  PRO52       0.0208
     33  CD        20.1950    4.4050   18.1080 C.3    52  PRO52       0.0893
     34  N         21.2120    8.3640   15.9800 N.am   53  PHE53      -0.1977
     35  CA        20.9490    9.7940   16.0840 C.3    53  PHE53       0.1639
     36  C         21.1970   10.4350   17.4520 C.2    53  PHE53       0.2290
     37  O         20.2700   10.9210   18.1080 O.2    53  PHE53      -0.2864
     38  CB        19.5310   10.0970   15.5770 C.3    53  PHE53       0.0560
     39  CG        19.4030   10.0530   14.0760 C.ar   53  PHE53      -0.0200
     40  CD1       19.9420   11.0690   13.2950 C.ar   53  PHE53      -0.0042
     41  CD2       18.7400    9.0060   13.4440 C.ar   53  PHE53      -0.0042
     42  CE1       19.8220   11.0460   11.9060 C.ar   53  PHE53      -0.0003
     43  CE2       18.6140    8.9730   12.0540 C.ar   53  PHE53      -0.0003
     44  CZ        19.1560    9.9950   11.2850 C.ar   53  PHE53      -0.0000
     45  N         23.6310   15.7260   14.1520 N.3    57  ALA57      -0.1231
     46  CA        22.4380   15.5450   13.3250 C.3    57  ALA57       0.1694
     47  C         21.3060   14.9770   14.1830 C.2    57  ALA57       0.2592
     48  O         20.1440   15.3550   14.0320 O.2    57  ALA57      -0.2718
     49  CB        22.7330   14.6220   12.1520 C.3    57  ALA57       0.0304
     50  N         21.6650   14.0920   15.1100 N.am   58  GLY58      -0.1957
     51  CA        20.6840   13.4960   15.9970 C.3    58  GLY58       0.1869
     52  C         20.0550   14.5050   16.9400 C.2    58  GLY58       0.2309
     53  O         18.8590   14.4340   17.2240 O.2    58  GLY58      -0.2863
     54  N         18.5550    2.8300   11.0710 N.3    79  ASN79      -0.1240
     55  CA        19.1420    3.2640    9.8010 C.3    79  ASN79       0.1653
     56  C         19.2210    2.1070    8.8090 C.2    79  ASN79       0.2266
     57  O         19.0180    0.9480    9.1770 O.2    79  ASN79      -0.2867
     58  CB        20.5580    3.8120   10.0240 C.3    79  ASN79       0.1155
     59  CG        20.5820    5.0440   10.9050 C.2    79  ASN79       0.2627
     60  OD1       20.1140    6.1120   10.5120 O.2    79  ASN79      -0.2716
     61  ND2       21.1400    4.9040   12.1000 N.am   79  ASN79      -0.0877
     62  N         17.4990   14.7930    5.3890 N.3   154  HIS154     -0.1241
     63  CA        18.3170   14.2400    6.4560 C.3   154  HIS154      0.1621
     64  C         18.7700   15.4370    7.2980 C.2   154  HIS154      0.2264
     65  O         19.1180   16.4830    6.7520 O.2   154  HIS154     -0.2867
     66  CB        19.5270   13.5280    5.8570 C.3   154  HIS154      0.0745
     67  CG        20.2920   12.7070    6.8420 C.ar  154  HIS154      0.0817
     68  ND1       21.0410   13.2660    7.8550 N.ar  154  HIS154     -0.2268
     69  CD2       20.4220   11.3660    6.9710 C.ar  154  HIS154      0.1154
     70  CE1       21.6000   12.3030    8.5660 C.ar  154  HIS154      0.1986
     71  NE2       21.2410   11.1420    8.0500 N.ar  154  HIS154     -0.2212
@<TRIPOS>BOND
     1     8     7   ar
     2     7     9   ar
     3     7     6    1
     4     6     5    1
     5    62    63    1
     6     5     2    1
     7    66    63    1
     8    66    67    1
     9     2     3    1
    10     2     1    1
    11    63    64    1
    12    65    64    2
    13     4     3    2
    14    67    69   ar
    15    67    68   ar
    16    69    71   ar
    17     3    10   am
    18    68    70   ar
    19    10    11    1
    20    71    70   ar
    21    11    12    1
    22    56    57    2
    23    56    55    1
    24    55    58    1
    25    55    54    1
    26    12    13    2
    27    58    59    1
    28    60    59    2
    29    59    61   am
    30    44    42   ar
    31    44    43   ar
    32    42    40   ar
    33    43    41   ar
    34    49    46    1
    35    15    14    1
    36    15    16    1
    37    40    39   ar
    38    46    45    1
    39    46    47    1
    40    41    39   ar
    41    16    17    2
    42    48    47    2
    43    39    38    1
    44    47    50   am
    45    25    24   ar
    46    50    51    1
    47    24    23    1
    48    24    26   ar
    49    38    35    1
    50    23    22    1
    51    22    19    1
    52    31    28    1
    53    31    32    1
    54    34    35    1
    55    34    29   am
    56    51    52    1
    57    35    36    1
    58    28    29    1
    59    28    27    1
    60    29    30    2
    61    52    53    2
    62    32    33    1
    63    19    18    1
    64    19    20    1
    65    20    21    2
    66    36    37    2
    67    27    33    1
