@<TRIPOS>MOLECULE
tmp/1uibA00.pdb
 154 151 0 0 0
SMALL
GASTEIGER

@<TRIPOS>ATOM
      1  N         16.5360   23.7980   27.7800 N.3    46  ASP46      -0.1239
      2  CA        16.3610   23.3460   29.1480 C.3    46  ASP46       0.1674
      3  C         16.4830   21.8270   29.3300 C.2    46  ASP46       0.2266
      4  O         16.3920   21.3350   30.4480 O.2    46  ASP46      -0.2867
      5  CB        15.0170   23.8580   29.7020 C.3    46  ASP46       0.1410
      6  CG        13.7890   23.2770   28.9740 C.2    46  ASP46       0.3668
      7  OD1       13.9230   22.6930   27.8860 O.co2  46  ASP46      -0.2456
      8  OD2       12.6620   23.4170   29.4920 O.co2  46  ASP46      -0.2456
      9  N         10.2140   18.5280   22.5050 N.3    50  ASP50      -0.1239
     10  CA         8.8520   18.7370   21.9990 C.3    50  ASP50       0.1674
     11  C          8.4980   17.5790   21.0660 C.2    50  ASP50       0.2266
     12  O          9.3020   17.2210   20.2000 O.2    50  ASP50      -0.2867
     13  CB         8.7530   20.0610   21.2510 C.3    50  ASP50       0.1410
     14  CG         9.0470   21.2450   22.1430 C.2    50  ASP50       0.3668
     15  OD1        8.7500   21.1750   23.3510 O.co2  50  ASP50      -0.2456
     16  OD2        9.6000   22.2410   21.6440 O.co2  50  ASP50      -0.2456
     17  N          1.7440   18.6330   17.3540 N.3    54  LEU54      -0.1231
     18  CA         1.5640   19.8690   18.1000 C.3    54  LEU54       0.1693
     19  C          2.7430   20.2320   18.9900 C.2    54  LEU54       0.2592
     20  O          2.6450   21.1470   19.8120 O.2    54  LEU54      -0.2718
     21  CB         0.2480   19.8520   18.8870 C.3    54  LEU54       0.0284
     22  CG        -0.9700   20.0580   17.9680 C.3    54  LEU54       0.0019
     23  CD1       -2.2460   19.7960   18.7350 C.3    54  LEU54       0.0001
     24  CD2       -0.9560   21.4700   17.3550 C.3    54  LEU54       0.0001
     25  N          3.8580   19.5260   18.8060 N.am   55  GLN55      -0.1966
     26  CA         5.0890   19.7850   19.5600 C.3    55  GLN55       0.1733
     27  C          4.8780   19.9670   21.0620 C.2    55  GLN55       0.2616
     28  O          5.2550   20.9840   21.6410 O.2    55  GLN55      -0.2715
     29  CB         5.7900   21.0090   18.9750 C.3    55  GLN55       0.0408
     30  CG         6.3980   20.7560   17.6170 C.3    55  GLN55       0.0908
     31  CD         7.5810   19.8030   17.6840 C.2    55  GLN55       0.2608
     32  OE1        8.7160   20.2200   17.9320 O.2    55  GLN55      -0.2717
     33  NE2        7.3200   18.5140   17.4770 N.am   55  GLN55      -0.0878
     34  N          4.2560   18.9740   21.6800 N.am   56  ILE56      -0.1963
     35  CA         3.9680   19.0030   23.1040 C.3    56  ILE56       0.1727
     36  C          5.2550   18.7200   23.9100 C.2    56  ILE56       0.2616
     37  O          5.9820   17.7570   23.6470 O.2    56  ILE56      -0.2715
     38  CB         2.7880   18.0420   23.4030 C.3    56  ILE56       0.0290
     39  CG1        1.5250   18.5820   22.7150 C.3    56  ILE56       0.0022
     40  CG2        2.5790   17.8460   24.9100 C.3    56  ILE56       0.0023
     41  CD1        0.3420   17.6440   22.7860 C.3    56  ILE56       0.0001
     42  N          5.5330   19.6110   24.8580 N.am   57  ASN57      -0.1972
     43  CA         6.7300   19.5920   25.6910 C.3    57  ASN57       0.1688
     44  C          6.7650   18.5690   26.8390 C.2    57  ASN57       0.2292
     45  O          5.8540   18.5140   27.6680 O.2    57  ASN57      -0.2864
     46  CB         6.9450   21.0070   26.2320 C.3    57  ASN57       0.1181
     47  CG         8.3300   21.2200   26.8090 C.2    57  ASN57       0.2629
     48  OD1        8.5270   21.1160   28.0100 O.2    57  ASN57      -0.2716
     49  ND2        9.2740   21.5920   25.9700 N.am   57  ASN57      -0.0877
     50  N          8.5780   18.6440   29.5510 N.3    59  ARG59      -0.1231
     51  CA         8.7460   19.1940   30.9010 C.3    59  ARG59       0.1694
     52  C          7.4160   19.2590   31.6630 C.2    59  ARG59       0.2592
     53  O          7.3870   19.1750   32.9000 O.2    59  ARG59      -0.2718
     54  CB         9.3950   20.5840   30.8720 C.3    59  ARG59       0.0321
     55  CG         9.5630   21.1870   32.2780 C.3    59  ARG59       0.0489
     56  CD        10.5440   22.3520   32.3520 C.3    59  ARG59       0.2205
     57  NE        11.8750   22.0090   31.8440 N.pl3  59  ARG59      -0.0865
     58  CZ        12.6460   21.0040   32.2750 C.cat  59  ARG59       0.5346
     59  NH1       12.2670   20.2140   33.2830 N.pl3  59  ARG59       0.1354
     60  NH2       13.8320   20.8050   31.7050 N.pl3  59  ARG59       0.1354
     61  N          6.3110   19.3100   30.9270 N.am   60  TRP60      -0.1962
     62  CA         5.0200   19.4190   31.5750 C.3    60  TRP60       0.1771
     63  C          3.9870   18.3590   31.2680 C.2    60  TRP60       0.2619
     64  O          3.3050   17.8560   32.1670 O.2    60  TRP60      -0.2715
     65  CB         4.3720   20.7630   31.2090 C.3    60  TRP60       0.0590
     66  CG         5.1330   21.9670   31.5970 C.ar   60  TRP60       0.0006
     67  CD1        6.0420   22.6310   30.8380 C.ar   60  TRP60       0.0946
     68  CD2        5.0620   22.6610   32.8470 C.ar   60  TRP60       0.0152
     69  NE1        6.5530   23.6960   31.5340 N.ar   60  TRP60      -0.2442
     70  CE2        5.9690   23.7420   32.7720 C.ar   60  TRP60       0.0810
     71  CE3        4.3120   22.4770   34.0230 C.ar   60  TRP60       0.0012
     72  CZ2        6.1570   24.6470   33.8330 C.ar   60  TRP60       0.0191
     73  CZ3        4.4940   23.3740   35.0820 C.ar   60  TRP60       0.0001
     74  CH2        5.4140   24.4490   34.9750 C.ar   60  TRP60       0.0015
     75  N          3.8830   18.0290   29.9870 N.am   61  TRP61      -0.1974
     76  CA         2.8220   17.1720   29.4870 C.3    61  TRP61       0.1640
     77  C          2.9590   15.6800   29.2920 C.2    61  TRP61       0.2290
     78  O          1.9600   14.9690   29.3200 O.2    61  TRP61      -0.2864
     79  CB         2.2940   17.8160   28.1970 C.3    61  TRP61       0.0576
     80  CG         2.0620   19.3110   28.3740 C.ar   61  TRP61       0.0006
     81  CD1        2.8470   20.3400   27.9000 C.ar   61  TRP61       0.0946
     82  CD2        1.0440   19.9260   29.1710 C.ar   61  TRP61       0.0152
     83  NE1        2.3840   21.5490   28.3690 N.ar   61  TRP61      -0.2442
     84  CE2        1.2810   21.3250   29.1520 C.ar   61  TRP61       0.0810
     85  CE3       -0.0390   19.4330   29.9110 C.ar   61  TRP61       0.0012
     86  CZ2        0.4750   22.2290   29.8500 C.ar   61  TRP61       0.0191
     87  CZ3       -0.8390   20.3420   30.6070 C.ar   61  TRP61       0.0001
     88  CH2       -0.5750   21.7210   30.5700 C.ar   61  TRP61       0.0015
     89  N          6.8700   17.1860   34.8170 N.3    71  ARG71      -0.1245
     90  CA         5.5370   16.6980   35.1190 C.3    71  ARG71       0.1563
     91  C          5.0830   15.8930   33.9160 C.2    71  ARG71       0.2260
     92  O          5.7130   15.9370   32.8540 O.2    71  ARG71      -0.2867
     93  CB         4.5900   17.8690   35.3640 C.3    71  ARG71       0.0307
     94  CG         5.1280   18.8620   36.3900 C.3    71  ARG71       0.0489
     95  CD         4.1030   19.9350   36.7600 C.3    71  ARG71       0.2205
     96  NE         2.9050   19.3610   37.3820 N.pl3  71  ARG71      -0.0865
     97  CZ         2.1430   19.9940   38.2720 C.cat  71  ARG71       0.5346
     98  NH1        2.4550   21.2330   38.6540 N.pl3  71  ARG71       0.1354
     99  NH2        1.0750   19.3850   38.7800 N.pl3  71  ARG71       0.1354
    100  N          1.5470   15.7950   32.9410 N.3    73  LEU73      -0.1245
    101  CA         0.1460   16.1810   33.0690 C.3    73  LEU73       0.1561
    102  C         -0.8780   15.4640   32.1850 C.2    73  LEU73       0.2260
    103  O         -2.0440   15.3090   32.5680 O.2    73  LEU73      -0.2867
    104  CB         0.0230   17.7090   32.9920 C.3    73  LEU73       0.0270
    105  CG         0.8750   18.4060   34.0620 C.3    73  LEU73       0.0019
    106  CD1        0.8650   19.8860   33.8700 C.3    73  LEU73       0.0001
    107  CD2        0.3670   18.0620   35.4430 C.3    73  LEU73       0.0001
    108  N         -3.9580   21.2120   27.6580 N.3    96  ILE96      -0.1245
    109  CA        -3.0130   22.3100   27.5520 C.3    96  ILE96       0.1561
    110  C         -3.7460   23.6320   27.3630 C.2    96  ILE96       0.2260
    111  O         -3.5680   24.5540   28.1550 O.2    96  ILE96      -0.2867
    112  CB        -2.0010   22.0660   26.3800 C.3    96  ILE96       0.0252
    113  CG1       -1.2060   20.7790   26.6450 C.3    96  ILE96       0.0019
    114  CG2       -1.0610   23.2750   26.1960 C.3    96  ILE96       0.0019
    115  CD1       -0.2470   20.4310   25.5450 C.3    96  ILE96       0.0001
    116  N         -5.3130   25.0500   30.4240 N.3    99  ASP99      -0.1225
    117  CA        -4.4560   25.3840   31.5570 C.3    99  ASP99       0.1805
    118  C         -4.2790   26.8470   31.9830 C.2    99  ASP99       0.2598
    119  O         -3.5560   27.1410   32.9430 O.2    99  ASP99      -0.2718
    120  CB        -3.0990   24.6880   31.4230 C.3    99  ASP99       0.1424
    121  CG        -2.4780   24.3480   32.7810 C.2    99  ASP99       0.3668
    122  OD1       -3.1600   23.7160   33.6180 O.co2  99  ASP99      -0.2456
    123  OD2       -1.3140   24.7240   33.0240 O.co2  99  ASP99      -0.2456
    124  N         -4.9370   27.7740   31.3020 N.am  100  GLY100     -0.1942
    125  CA        -4.8240   29.1560   31.7280 C.3   100  GLY100      0.2014
    126  C         -4.2670   30.1420   30.7330 C.2   100  GLY100      0.2638
    127  O         -4.7210   31.2960   30.6980 O.2   100  GLY100     -0.2714
    128  N         -3.3110   29.6970   29.9150 N.am  101  ASN101     -0.1972
    129  CA        -2.6900   30.5680   28.9190 C.3   101  ASN101      0.1688
    130  C         -3.2620   30.3830   27.5320 C.2   101  ASN101      0.2292
    131  O         -2.8240   31.0260   26.5930 O.2   101  ASN101     -0.2864
    132  CB        -1.1770   30.3650   28.9030 C.3   101  ASN101      0.1181
    133  CG        -0.5300   30.7800   30.2200 C.2   101  ASN101      0.2629
    134  OD1       -0.9980   31.7160   30.8820 O.2   101  ASN101     -0.2716
    135  ND2        0.5260   30.0710   30.6260 N.am  101  ASN101     -0.0877
    136  N          0.4260   28.8550   24.7280 N.3   105  ALA105     -0.1231
    137  CA         1.3330   27.7740   25.1290 C.3   105  ALA105      0.1694
    138  C          2.1220   27.2850   23.9180 C.2   105  ALA105      0.2592
    139  O          3.1270   26.6090   24.0780 O.2   105  ALA105     -0.2718
    140  CB         0.5490   26.6020   25.7440 C.3   105  ALA105      0.0304
    141  N          1.6210   27.5530   22.7120 N.am  106  TRP106     -0.1976
    142  CA         2.3170   27.1880   21.4820 C.3   106  TRP106      0.1640
    143  C          2.9840   28.4530   20.9520 C.2   106  TRP106      0.2290
    144  O          2.3110   29.3620   20.4390 O.2   106  TRP106     -0.2864
    145  CB         1.3610   26.6240   20.4360 C.3   106  TRP106      0.0576
    146  CG         0.9580   25.2190   20.7170 C.ar  106  TRP106      0.0006
    147  CD1        1.6450   24.0800   20.3730 C.ar  106  TRP106      0.0946
    148  CD2       -0.2100   24.7880   21.4220 C.ar  106  TRP106      0.0152
    149  NE1        0.9750   22.9710   20.8320 N.ar  106  TRP106     -0.2442
    150  CE2       -0.1690   23.3670   21.4750 C.ar  106  TRP106      0.0810
    151  CE3       -1.2860   25.4540   22.0260 C.ar  106  TRP106      0.0012
    152  CZ2       -1.1590   22.6070   22.1010 C.ar  106  TRP106      0.0191
    153  CZ3       -2.2780   24.6910   22.6580 C.ar  106  TRP106      0.0001
    154  CH2       -2.2030   23.2800   22.6870 C.ar  106  TRP106      0.0015
@<TRIPOS>BOND
     1    17    18    1
     2    24    22    1
     3    33    31   am
     4    30    31    1
     5    30    29    1
     6    31    32    2
     7    22    23    1
     8    22    21    1
     9    18    21    1
    10    18    19    1
    11    25    19   am
    12    25    26    1
    13    29    26    1
    14    19    20    2
    15    26    27    1
    16    12    11    2
    17   147   146   ar
    18   147   149   ar
    19   145   146    1
    20   145   142    1
    21   144   143    2
    22   146   148   ar
    23   149   150   ar
    24   143   142    1
    25    27    28    2
    26    27    34   am
    27    11    10    1
    28    13    10    1
    29    13    14    1
    30   148   150   ar
    31   148   151   ar
    32   150   152   ar
    33   142   141    1
    34    16    14   ar
    35    34    35    1
    36    10     9    1
    37   151   153   ar
    38   152   154   ar
    39    14    15   ar
    40   153   154   ar
    41   141   138   am
    42    39    41    1
    43    39    38    1
    44    35    38    1
    45    35    36    1
    46    38    40    1
    47    37    36    2
    48    36    42   am
    49   138   139    2
    50   138   137    1
    51   136   137    1
    52    42    43    1
    53   137   140    1
    54   115   113    1
    55    43    46    1
    56    43    44    1
    57    49    47   am
    58   114   112    1
    59    46    47    1
    60   112   113    1
    61   112   109    1
    62   131   130    2
    63    47    48    2
    64    44    45    2
    65   110   109    1
    66   110   111    2
    67   130   129    1
    68   109   108    1
    69     1     2    1
    70     7     6   ar
    71    81    83   ar
    72    81    80   ar
    73    79    80    1
    74    79    76    1
    75    83    84   ar
    76    80    82   ar
    77   132   129    1
    78   132   133    1
    79   129   128    1
    80     6     8   ar
    81     6     5    1
    82     2     3    1
    83     2     5    1
    84    84    82   ar
    85    84    86   ar
    86    82    85   ar
    87    77    78    2
    88    77    76    1
    89     3     4    2
    90    76    75    1
    91    50    51    1
    92    86    88   ar
    93    85    87   ar
    94   128   126   am
    95    75    63   am
    96   133   135   am
    97   133   134    2
    98   116   117    1
    99    88    87   ar
   100   127   126    2
   101   126   125    1
   102    67    69   ar
   103    67    66   ar
   104    54    51    1
   105    54    55    1
   106    51    52    1
   107    61    62    1
   108    61    52   am
   109    65    62    1
   110    65    66    1
   111    63    62    1
   112    63    64    2
   113   124   125    1
   114   124   118   am
   115   120   117    1
   116   120   121    1
   117    69    70   ar
   118   117   118    1
   119    66    68   ar
   120    52    53    2
   121    60    58    1
   122    57    58    2
   123    57    56    1
   124   118   119    2
   125   102   103    2
   126   102   101    1
   127    58    59    1
   128    55    56    1
   129    70    68   ar
   130    70    72   ar
   131   121   123   ar
   132   121   122   ar
   133    68    71   ar
   134    92    91    2
   135   100   101    1
   136   104   101    1
   137   104   105    1
   138    72    74   ar
   139   106   105    1
   140    91    90    1
   141    71    73   ar
   142   105   107    1
   143    89    90    1
   144    74    73   ar
   145    90    93    1
   146    93    94    1
   147    94    95    1
   148    95    96    1
   149    96    97    2
   150    97    98    1
   151    97    99    1
