@<TRIPOS>MOLECULE
tmp/1uimA00.pdb
 132 126 0 0 0
SMALL
GASTEIGER

@<TRIPOS>ATOM
      1  N         14.2570   24.9710   40.9730 N.3    59  SER59      -0.1202
      2  CA        12.8290   24.9410   41.2790 C.3    59  SER59       0.2020
      3  C         12.5230   25.7720   42.5190 C.2    59  SER59       0.2619
      4  O         13.4230   26.1080   43.2870 O.2    59  SER59      -0.2717
      5  CB        12.3570   23.5030   41.5030 C.3    59  SER59       0.2103
      6  OG        12.8310   23.0020   42.7390 O.3    59  SER59      -0.2182
      7  N         11.2470   26.0890   42.7150 N.am   60  PHE60      -0.1961
      8  CA        10.8200   26.8940   43.8550 C.3    60  PHE60       0.1771
      9  C         10.9960   26.1640   45.1830 C.2    60  PHE60       0.2619
     10  O         10.8930   26.7710   46.2470 O.2    60  PHE60      -0.2715
     11  CB         9.3550   27.3080   43.6820 C.3    60  PHE60       0.0574
     12  CG         8.3730   26.2040   43.9590 C.ar   60  PHE60      -0.0200
     13  CD1        7.9560   25.9350   45.2590 C.ar   60  PHE60      -0.0042
     14  CD2        7.8760   25.4240   42.9230 C.ar   60  PHE60      -0.0042
     15  CE1        7.0580   24.9060   45.5230 C.ar   60  PHE60      -0.0003
     16  CE2        6.9760   24.3910   43.1790 C.ar   60  PHE60      -0.0003
     17  CZ         6.5680   24.1330   44.4810 C.ar   60  PHE60      -0.0000
     18  N         11.2600   24.8630   45.1130 N.am   61  LYS61      -0.1977
     19  CA        11.4460   24.0480   46.3100 C.3    61  LYS61       0.1596
     20  C         12.4430   24.6770   47.2850 C.2    61  LYS61       0.2287
     21  O         12.3130   24.5310   48.5000 O.2    61  LYS61      -0.2864
     22  CB        11.9340   22.6470   45.9230 C.3    61  LYS61       0.0298
     23  CG        10.9380   21.8020   45.1330 C.3    61  LYS61       0.0038
     24  CD         9.7300   21.4160   45.9750 C.3    61  LYS61       0.0206
     25  CE         8.9120   20.3110   45.3090 C.3    61  LYS61       0.1093
     26  NZ         8.4990   20.7560   43.9790 N.3    61  LYS61      -0.1314
     27  N         12.8900   17.1960   41.9710 N.3    87  ASN87      -0.1240
     28  CA        13.2020   18.4830   42.5850 C.3    87  ASN87       0.1653
     29  C         13.3300   18.5330   44.1060 C.2    87  ASN87       0.2266
     30  O         14.2130   19.2150   44.6290 O.2    87  ASN87      -0.2867
     31  CB        12.1840   19.5250   42.1140 C.3    87  ASN87       0.1155
     32  CG        12.1090   19.6110   40.6010 C.2    87  ASN87       0.2627
     33  OD1       13.1290   19.5560   39.9200 O.2    87  ASN87      -0.2716
     34  ND2       10.9040   19.7510   40.0690 N.am   87  ASN87      -0.0877
     35  N          7.7910   28.9160   51.3770 N.3   164  GLN164     -0.1245
     36  CA         7.2300   29.1390   50.0510 C.3   164  GLN164      0.1566
     37  C          6.2730   30.3280   50.0090 C.2   164  GLN164      0.2260
     38  O          5.8930   30.7920   48.9360 O.2   164  GLN164     -0.2867
     39  CB         6.5330   27.8670   49.5660 C.3   164  GLN164      0.0367
     40  CG         7.5020   26.7150   49.3340 C.3   164  GLN164      0.0905
     41  CD         6.8110   25.3970   49.0480 C.2   164  GLN164      0.2608
     42  OE1        7.4680   24.3790   48.8330 O.2   164  GLN164     -0.2717
     43  NE2        5.4820   25.4060   49.0470 N.am  164  GLN164     -0.0878
     44  N          1.1410   25.6170   39.0280 N.3   185  PRO185     -0.2102
     45  CA         0.9000   24.1750   38.9310 C.3   185  PRO185      0.1504
     46  C          0.4400   23.6320   40.2810 C.2   185  PRO185      0.2576
     47  O          0.6950   24.2400   41.3220 O.2   185  PRO185     -0.2718
     48  CB         2.2680   23.6200   38.5370 C.3   185  PRO185      0.0282
     49  CG         2.9430   24.7800   37.8640 C.3   185  PRO185      0.0208
     50  CD         2.5530   25.9240   38.7530 C.3   185  PRO185      0.0893
     51  N         -0.2360   22.4900   40.2610 N.am  186  VAL186     -0.1966
     52  CA        -0.7070   21.8750   41.4930 C.3   186  VAL186      0.1727
     53  C         -0.3900   20.3830   41.5280 C.2   186  VAL186      0.2617
     54  O         -0.9600   19.5960   40.7710 O.2   186  VAL186     -0.2715
     55  CB        -2.2290   22.0620   41.6720 C.3   186  VAL186      0.0290
     56  CG1       -2.6930   21.3440   42.9310 C.3   186  VAL186      0.0023
     57  CG2       -2.5660   23.5450   41.7540 C.3   186  VAL186      0.0023
     58  N          0.5340   20.0110   42.4070 N.am  187  GLY187     -0.1940
     59  CA         0.9150   18.6200   42.5640 C.3   187  GLY187      0.2014
     60  C          0.4060   18.1690   43.9180 C.2   187  GLY187      0.2639
     61  O         -0.7110   17.6650   44.0270 O.2   187  GLY187     -0.2714
     62  N          1.2220   18.3560   44.9520 N.am  188  ASN188     -0.1958
     63  CA         0.8260   17.9950   46.3070 C.3   188  ASN188      0.1819
     64  C          0.0300   19.1450   46.9170 C.2   188  ASN188      0.2621
     65  O         -0.4370   19.0580   48.0510 O.2   188  ASN188     -0.2715
     66  CB         2.0530   17.6900   47.1690 C.3   188  ASN188      0.1195
     67  CG         2.4950   16.2440   47.0580 C.2   188  ASN188      0.2630
     68  OD1        1.7400   15.3270   47.3890 O.2   188  ASN188     -0.2716
     69  ND2        3.7200   16.0310   46.5920 N.am  188  ASN188     -0.0877
     70  N         -0.1100   20.2200   46.1450 N.am  189  ALA189     -0.1963
     71  CA        -0.8640   21.4050   46.5530 C.3   189  ALA189      0.1728
     72  C         -0.2300   22.2080   47.6830 C.2   189  ALA189      0.2617
     73  O         -0.8710   23.0840   48.2640 O.2   189  ALA189     -0.2715
     74  CB        -2.2880   21.0070   46.9370 C.3   189  ALA189      0.0334
     75  N          1.0280   21.9180   47.9920 N.am  190  GLY190     -0.1940
     76  CA         1.6950   22.6460   49.0530 C.3   190  GLY190      0.2014
     77  C          2.0710   24.0550   48.6340 C.2   190  GLY190      0.2639
     78  O          2.1150   24.9680   49.4580 O.2   190  GLY190     -0.2714
     79  N          2.3320   24.2370   47.3440 N.am  191  ASN191     -0.1958
     80  CA         2.7240   25.5380   46.8190 C.3   191  ASN191      0.1819
     81  C          1.5410   26.5010   46.7200 C.2   191  ASN191      0.2621
     82  O          1.6390   27.6540   47.1460 O.2   191  ASN191     -0.2715
     83  CB         3.3930   25.3640   45.4510 C.3   191  ASN191      0.1195
     84  CG         4.2180   26.5710   45.0460 C.2   191  ASN191      0.2630
     85  OD1        4.8340   27.2260   45.8880 O.2   191  ASN191     -0.2716
     86  ND2        4.2530   26.8570   43.7490 N.am  191  ASN191     -0.0877
     87  N          0.4240   26.0340   46.1690 N.am  192  ILE192     -0.1977
     88  CA        -0.7510   26.8900   46.0460 C.3   192  ILE192      0.1596
     89  C         -1.2110   27.3120   47.4380 C.2   192  ILE192      0.2287
     90  O         -1.7050   28.4250   47.6300 O.2   192  ILE192     -0.2864
     91  CB        -1.9150   26.1790   45.3050 C.3   192  ILE192      0.0276
     92  CG1       -3.0820   27.1560   45.1260 C.3   192  ILE192      0.0022
     93  CG2       -2.3610   24.9430   46.0760 C.3   192  ILE192      0.0022
     94  CD1       -4.2170   26.6210   44.2820 C.3   192  ILE192      0.0001
     95  N          6.4890   16.5390   37.5320 N.3   240  ALA240     -0.1231
     96  CA         6.4160   17.3260   38.7600 C.3   240  ALA240      0.1694
     97  C          5.0300   17.3580   39.4060 C.2   240  ALA240      0.2591
     98  O          4.9170   17.4620   40.6260 O.2   240  ALA240     -0.2718
     99  CB         6.8990   18.7430   38.4900 C.3   240  ALA240      0.0304
    100  N          3.9790   17.2780   38.5970 N.am  241  ILE241     -0.1980
    101  CA         2.6220   17.2980   39.1350 C.3   241  ILE241      0.1595
    102  C          1.8740   15.9860   38.9070 C.2   241  ILE241      0.2287
    103  O          0.6450   15.9610   38.8830 O.2   241  ILE241     -0.2864
    104  CB         1.7900   18.4530   38.5330 C.3   241  ILE241      0.0276
    105  CG1        1.8070   18.3720   37.0070 C.3   241  ILE241      0.0022
    106  CG2        2.3350   19.7880   39.0110 C.3   241  ILE241      0.0022
    107  CD1        0.9840   19.4490   36.3320 C.3   241  ILE241      0.0001
    108  N         10.0170   23.7840   32.7490 N.3   287  GLU287     -0.1245
    109  CA         9.6630   22.3850   32.5580 C.3   287  GLU287      0.1567
    110  C          8.1480   22.2380   32.4090 C.2   287  GLU287      0.2260
    111  O          7.3840   23.0950   32.8610 O.2   287  GLU287     -0.2867
    112  CB        10.1930   21.5150   33.7100 C.3   287  GLU287      0.0388
    113  CG         9.7930   21.9280   35.1130 C.3   287  GLU287      0.1160
    114  CD        10.3470   20.9710   36.1610 C.2   287  GLU287      0.3649
    115  OE1        9.9110   19.8000   36.1950 O.co2 287  GLU287     -0.2457
    116  OE2       11.2250   21.3850   36.9470 O.co2 287  GLU287     -0.2457
    117  N          5.5400   20.7150   33.8250 N.3   289  ALA289     -0.1245
    118  CA         4.6710   21.0150   34.9570 C.3   289  ALA289      0.1562
    119  C          4.4600   22.5180   35.1270 C.2   289  ALA289      0.2260
    120  O          3.3400   22.9730   35.3730 O.2   289  ALA289     -0.2867
    121  CB         5.2540   20.4270   36.2310 C.3   289  ALA289      0.0290
    122  N          7.2380   27.2390   38.2210 N.3   317  THR317     -0.1203
    123  CA         7.9110   26.4180   39.2200 C.3   317  THR317      0.1994
    124  C          9.3180   25.8800   38.9550 C.2   317  THR317      0.2618
    125  O         10.1550   25.8950   39.8560 O.2   317  THR317     -0.2717
    126  CB         7.0050   25.2380   39.6080 C.3   317  THR317      0.1784
    127  OG1        6.5920   24.5430   38.4250 O.3   317  THR317     -0.2211
    128  CG2        5.7720   25.7390   40.3470 C.3   317  THR317      0.0376
    129  N          9.5850   25.4020   37.7440 N.am  318  GLY318     -0.1956
    130  CA        10.9060   24.8640   37.4550 C.3   318  GLY318      0.1869
    131  C         11.4930   25.2550   36.1120 C.2   318  GLY318      0.2309
    132  O         10.7720   25.6420   35.1940 O.2   318  GLY318     -0.2863
@<TRIPOS>BOND
     1   110   109    1
     2   110   111    2
     3   109   108    1
     4   109   112    1
     5   112   113    1
     6   117   118    1
     7   118   119    1
     8   118   121    1
     9   113   114    1
    10   119   120    2
    11   132   131    2
    12   131   130    1
    13   114   115   ar
    14   114   116   ar
    15   107   105    1
    16   105   104    1
    17   130   129    1
    18    95    96    1
    19   129   124   am
    20    49    48    1
    21    49    50    1
    22   122   123    1
    23   127   126    1
    24    99    96    1
    25   104   106    1
    26   104   101    1
    27    48    45    1
    28   100   101    1
    29   100    97   am
    30    50    44    1
    31    96    97    1
    32   103   102    2
    33   102   101    1
    34    45    44    1
    35    45    46    1
    36   124   123    1
    37   124   125    2
    38   123   126    1
    39    97    98    2
    40   126   128    1
    41    33    32    2
    42    34    32   am
    43    51    46   am
    44    51    52    1
    45    46    47    2
    46    32    31    1
    47    54    53    2
    48     1     2    1
    49     2     5    1
    50     2     3    1
    51    52    53    1
    52    52    55    1
    53     5     6    1
    54    53    58   am
    55    55    57    1
    56    55    56    1
    57    27    28    1
    58    31    28    1
    59    58    59    1
    60     3     7   am
    61     3     4    2
    62    59    60    1
    63    28    29    1
    64     7     8    1
    65    14    16   ar
    66    14    12   ar
    67    16    17   ar
    68    11     8    1
    69    11    12    1
    70    86    84   am
    71     8     9    1
    72    60    61    2
    73    60    62   am
    74    12    13   ar
    75    26    25    1
    76    29    30    2
    77    94    92    1
    78    17    15   ar
    79    62    63    1
    80    84    83    1
    81    84    85    2
    82    18     9   am
    83    18    19    1
    84    92    91    1
    85    23    22    1
    86    23    24    1
    87     9    10    2
    88    13    15   ar
    89    91    88    1
    90    91    93    1
    91    25    24    1
    92    83    80    1
    93    22    19    1
    94    88    87    1
    95    88    89    1
    96    70    71    1
    97    70    64   am
    98    87    81   am
    99    63    64    1
   100    63    66    1
   101    19    20    1
   102    71    74    1
   103    71    72    1
   104    69    67   am
   105    81    80    1
   106    81    82    2
   107    80    79    1
   108    64    65    2
   109    67    66    1
   110    67    68    2
   111    20    21    2
   112    79    77   am
   113    89    90    2
   114    72    75   am
   115    72    73    2
   116    75    76    1
   117    77    76    1
   118    77    78    2
   119    42    41    2
   120    38    37    2
   121    43    41   am
   122    41    40    1
   123    40    39    1
   124    39    36    1
   125    37    36    1
   126    36    35    1
