@<TRIPOS>MOLECULE
tmp/1uj2A01.pdb
 107 100 0 0 0
SMALL
GASTEIGER

@<TRIPOS>ATOM
      1  N         -0.4040    5.9710   54.6020 N.3    11  THR11      -0.1203
      2  CA         0.0260    7.3670   54.5620 C.3    11  THR11       0.1994
      3  C          0.7460    7.7180   55.8780 C.2    11  THR11       0.2618
      4  O          0.3250    7.2860   56.9410 O.2    11  THR11      -0.2717
      5  CB        -1.2100    8.3210   54.3790 C.3    11  THR11       0.1784
      6  OG1       -0.7710    9.6910   54.3470 O.3    11  THR11      -0.2211
      7  CG2       -2.2250    8.1520   55.5330 C.3    11  THR11       0.0376
      8  N          1.8300    8.4840   55.7920 N.am   12  ALA12      -0.1965
      9  CA         2.5900    8.9120   56.9760 C.3    12  ALA12       0.1728
     10  C          3.1550    7.7840   57.8380 C.2    12  ALA12       0.2617
     11  O          3.3600    7.9630   59.0520 O.2    12  ALA12      -0.2715
     12  CB         1.7240    9.8450   57.8500 C.3    12  ALA12       0.0334
     13  N          3.4040    6.6290   57.2270 N.am   13  SER13      -0.1936
     14  CA         3.9680    5.4980   57.9630 C.3    13  SER13       0.2055
     15  C          5.4740    5.6590   58.0980 C.2    13  SER13       0.2644
     16  O          6.0900    5.0690   58.9910 O.2    13  SER13      -0.2714
     17  CB         3.6630    4.1770   57.2470 C.3    13  SER13       0.2130
     18  OG         4.1310    4.1940   55.9080 O.3    13  SER13      -0.2179
     19  N          6.0590    6.4710   57.2200 N.am   14  GLY14      -0.1939
     20  CA         7.5020    6.6900   57.2370 C.3    14  GLY14       0.2014
     21  C          8.1940    6.2120   55.9670 C.2    14  GLY14       0.2639
     22  O          9.4280    6.1750   55.8950 O.2    14  GLY14      -0.2714
     23  N          7.4050    5.8390   54.9540 N.am   15  LYS15      -0.1963
     24  CA         7.9740    5.3720   53.6860 C.3    15  LYS15       0.1728
     25  C          9.0150    6.3120   53.0790 C.2    15  LYS15       0.2617
     26  O         10.1260    5.8870   52.7310 O.2    15  LYS15      -0.2715
     27  CB         6.8710    5.1590   52.6360 C.3    15  LYS15       0.0311
     28  CG         5.7760    4.2040   53.0280 C.3    15  LYS15       0.0038
     29  CD         4.7860    4.0070   51.8720 C.3    15  LYS15       0.0206
     30  CE         4.0880    5.3220   51.4690 C.3    15  LYS15       0.1093
     31  NZ         3.2620    5.9660   52.5570 N.3    15  LYS15      -0.1314
     32  N          8.6540    7.5840   52.9180 N.am   16  SER16      -0.1936
     33  CA         9.5690    8.5610   52.3150 C.3    16  SER16       0.2055
     34  C         10.8470    8.7330   53.1180 C.2    16  SER16       0.2643
     35  O         11.9480    8.7720   52.5550 O.2    16  SER16      -0.2714
     36  CB         8.9060    9.9400   52.1780 C.3    16  SER16       0.2130
     37  OG         7.7300    9.8920   51.3890 O.3    16  SER16      -0.2179
     38  N         10.7000    8.8640   54.4310 N.am   17  SER17      -0.1949
     39  CA        11.8620    9.0570   55.2910 C.3    17  SER17       0.1924
     40  C         12.7660    7.8310   55.3390 C.2    17  SER17       0.2314
     41  O         13.9880    7.9630   55.4050 O.2    17  SER17      -0.2863
     42  CB        11.4180    9.4330   56.7000 C.3    17  SER17       0.2116
     43  OG        12.5620    9.7170   57.4820 O.3    17  SER17      -0.2180
     44  N          8.3980    3.7180   46.1850 N.3   117  GLU117     -0.1245
     45  CA         7.5680    3.7700   47.3910 C.3   117  GLU117      0.1567
     46  C          6.2060    4.4170   47.1480 C.2   117  GLU117      0.2260
     47  O          6.0960    5.3880   46.3950 O.2   117  GLU117     -0.2867
     48  CB         8.3260    4.5320   48.5010 C.3   117  GLU117      0.0388
     49  CG         8.6230    6.0240   48.2070 C.3   117  GLU117      0.1160
     50  CD         7.4740    6.9630   48.5940 C.2   117  GLU117      0.3649
     51  OE1        7.4660    8.1280   48.1410 O.co2 117  GLU117     -0.2457
     52  OE2        6.5810    6.5470   49.3610 O.co2 117  GLU117     -0.2457
     53  N          0.4400   11.9670   62.7870 N.3   147  ARG147     -0.1245
     54  CA         1.5300   12.4920   61.9740 C.3   147  ARG147      0.1563
     55  C          1.0240   13.2160   60.7250 C.2   147  ARG147      0.2260
     56  O          1.5640   14.2480   60.3440 O.2   147  ARG147     -0.2867
     57  CB         2.4520   11.3670   61.5110 C.3   147  ARG147      0.0307
     58  CG         3.2160   10.6980   62.6250 C.3   147  ARG147      0.0489
     59  CD         3.9960    9.5440   62.0270 C.3   147  ARG147      0.2205
     60  NE         4.6930    8.7420   63.0230 N.pl3 147  ARG147     -0.0865
     61  CZ         5.4300    7.6790   62.7100 C.cat 147  ARG147      0.5346
     62  NH1        5.5510    7.3070   61.4370 N.pl3 147  ARG147      0.1354
     63  NH2        6.0450    6.9990   63.6580 N.pl3 147  ARG147      0.1354
     64  N          1.6950   17.0880   59.6330 N.3   151  ARG151     -0.1245
     65  CA         2.3770   17.2940   58.3570 C.3   151  ARG151      0.1563
     66  C          1.5550   18.1160   57.3630 C.2   151  ARG151      0.2260
     67  O          2.0670   19.0570   56.7560 O.2   151  ARG151     -0.2867
     68  CB         2.7300   15.9510   57.7130 C.3   151  ARG151      0.0307
     69  CG         3.3810   16.0650   56.3220 C.3   151  ARG151      0.0489
     70  CD         3.3870   14.7110   55.6040 C.3   151  ARG151      0.2205
     71  NE         2.0610   14.3360   55.1160 N.pl3 151  ARG151     -0.0865
     72  CZ         1.7490   13.1270   54.6540 C.cat 151  ARG151      0.5346
     73  NH1        2.6720   12.1630   54.6220 N.pl3 151  ARG151      0.1354
     74  NH2        0.5180   12.8810   54.2110 N.pl3 151  ARG151      0.1354
     75  N          2.9650   21.5990   56.1530 N.3   155  GLU155     -0.1245
     76  CA         3.6970   21.4860   54.8950 C.3   155  GLU155      0.1567
     77  C          2.8450   21.5520   53.6500 C.2   155  GLU155      0.2260
     78  O          3.3370   21.8950   52.5630 O.2   155  GLU155     -0.2867
     79  CB         4.4820   20.1780   54.8640 C.3   155  GLU155      0.0388
     80  CG         5.5110   20.0550   55.9560 C.3   155  GLU155      0.1160
     81  CD         6.2270   18.7260   55.9390 C.2   155  GLU155      0.3649
     82  OE1        6.1430   18.0050   54.9190 O.co2 155  GLU155     -0.2457
     83  OE2        6.8890   18.4100   56.9520 O.co2 155  GLU155     -0.2457
     84  N          8.3360    1.0860   63.3810 N.3   192  ARG192     -0.1245
     85  CA         8.9660    2.3210   63.8420 C.3   192  ARG192      0.1563
     86  C          9.5550    3.2000   62.7370 C.2   192  ARG192      0.2260
     87  O         10.3310    4.1240   63.0100 O.2   192  ARG192     -0.2867
     88  CB        10.0260    2.0100   64.9130 C.3   192  ARG192      0.0307
     89  CG         9.4140    1.4110   66.1920 C.3   192  ARG192      0.0489
     90  CD        10.4300    1.2730   67.3060 C.3   192  ARG192      0.2205
     91  NE        11.4880    0.3310   66.9640 N.pl3 192  ARG192     -0.0865
     92  CZ        11.3110   -0.9800   66.8390 C.cat 192  ARG192      0.5346
     93  NH1       10.1110   -1.5120   67.0310 N.pl3 192  ARG192      0.1354
     94  NH2       12.3370   -1.7560   66.5210 N.pl3 192  ARG192      0.1354
     95  N         11.2850    5.4180   60.0940 N.3   194  ALA194     -0.1231
     96  CA        12.6320    5.9660   59.9970 C.3   194  ALA194      0.1694
     97  C         13.4550    5.9350   61.2830 C.2   194  ALA194      0.2592
     98  O         14.6560    6.2120   61.2500 O.2   194  ALA194     -0.2718
     99  CB        12.5670    7.3930   59.4510 C.3   194  ALA194      0.0304
    100  N         12.8300    5.6040   62.4100 N.am  195  ASP195     -0.1974
    101  CA        13.5710    5.5360   63.6690 C.3   195  ASP195      0.1709
    102  C         14.1430    4.1420   63.8710 C.2   195  ASP195      0.2293
    103  O         14.8190    3.8780   64.8660 O.2   195  ASP195     -0.2864
    104  CB        12.6770    5.8750   64.8660 C.3   195  ASP195      0.1436
    105  CG        12.2740    7.3330   64.9010 C.2   195  ASP195      0.3671
    106  OD1       13.0360    8.1820   64.3860 O.co2 195  ASP195     -0.2456
    107  OD2       11.1980    7.6300   65.4590 O.co2 195  ASP195     -0.2456
@<TRIPOS>BOND
     1    44    45    1
     2    47    46    2
     3    46    45    1
     4    45    48    1
     5    51    50   ar
     6    49    48    1
     7    49    50    1
     8    50    52   ar
     9    37    36    1
    10    30    29    1
    11    30    31    1
    12    29    28    1
    13    36    33    1
    14    33    32    1
    15    33    34    1
    16    35    34    2
    17    78    77    2
    18    27    28    1
    19    27    24    1
    20    26    25    2
    21    32    25   am
    22    25    24    1
    23    34    38   am
    24    77    76    1
    25    24    23    1
    26    74    72    1
    27     6     5    1
    28     5     2    1
    29     5     7    1
    30    38    39    1
    31     2     1    1
    32     2     3    1
    33    73    72    1
    34    72    71    2
    35    79    76    1
    36    79    80    1
    37    76    75    1
    38    82    81   ar
    39    23    21   am
    40    71    70    1
    41    39    40    1
    42    39    42    1
    43    40    41    2
    44    70    69    1
    45     8     3   am
    46     8     9    1
    47     3     4    2
    48    22    21    2
    49    18    17    1
    50    81    80    1
    51    81    83   ar
    52    21    20    1
    53    69    68    1
    54    42    43    1
    55    67    66    2
    56     9    10    1
    57     9    12    1
    58    19    20    1
    59    19    15   am
    60    13    10   am
    61    13    14    1
    62    17    14    1
    63    66    65    1
    64    68    65    1
    65    10    11    2
    66    14    15    1
    67    15    16    2
    68    65    64    1
    69    99    96    1
    70    96    95    1
    71    96    97    1
    72    56    55    2
    73    55    54    1
    74    98    97    2
    75    97   100   am
    76    62    61    1
    77    57    54    1
    78    57    58    1
    79    54    53    1
    80    59    58    1
    81    59    60    1
    82   100   101    1
    83    61    60    2
    84    61    63    1
    85    86    87    2
    86    86    85    1
    87    84    85    1
    88   101   102    1
    89   101   104    1
    90    85    88    1
    91   102   103    2
    92   106   105   ar
    93   104   105    1
    94   105   107   ar
    95    88    89    1
    96    89    90    1
    97    94    92    1
    98    92    91    2
    99    92    93    1
   100    91    90    1
