@<TRIPOS>MOLECULE
tmp/1uj2A00.pdb
 188 178 0 0 0
SMALL
GASTEIGER

@<TRIPOS>ATOM
      1  N         -0.4040    5.9710   54.6020 N.3    11  THR11      -0.1203
      2  CA         0.0260    7.3670   54.5620 C.3    11  THR11       0.1994
      3  C          0.7460    7.7180   55.8780 C.2    11  THR11       0.2617
      4  O          0.3250    7.2860   56.9410 O.2    11  THR11      -0.2717
      5  CB        -1.2100    8.3210   54.3790 C.3    11  THR11       0.1784
      6  OG1       -0.7710    9.6910   54.3470 O.3    11  THR11      -0.2211
      7  CG2       -2.2250    8.1520   55.5330 C.3    11  THR11       0.0376
      8  N          1.8300    8.4840   55.7920 N.am   12  ALA12      -0.1979
      9  CA         2.5900    8.9120   56.9760 C.3    12  ALA12       0.1597
     10  C          3.1550    7.7840   57.8380 C.2    12  ALA12       0.2287
     11  O          3.3600    7.9630   59.0520 O.2    12  ALA12      -0.2864
     12  CB         1.7240    9.8450   57.8500 C.3    12  ALA12       0.0319
     13  N          7.4050    5.8390   54.9540 N.3    15  LYS15      -0.1231
     14  CA         7.9740    5.3720   53.6860 C.3    15  LYS15       0.1693
     15  C          9.0150    6.3120   53.0790 C.2    15  LYS15       0.2592
     16  O         10.1260    5.8870   52.7310 O.2    15  LYS15      -0.2718
     17  CB         6.8710    5.1590   52.6360 C.3    15  LYS15       0.0285
     18  CG         5.7760    4.2040   53.0280 C.3    15  LYS15       0.0035
     19  CD         4.7860    4.0070   51.8720 C.3    15  LYS15       0.0206
     20  CE         4.0880    5.3220   51.4690 C.3    15  LYS15       0.1093
     21  NZ         3.2620    5.9660   52.5570 N.3    15  LYS15      -0.1314
     22  N          8.6540    7.5840   52.9180 N.am   16  SER16      -0.1952
     23  CA         9.5690    8.5610   52.3150 C.3    16  SER16       0.1924
     24  C         10.8470    8.7330   53.1180 C.2    16  SER16       0.2314
     25  O         11.9480    8.7720   52.5550 O.2    16  SER16      -0.2863
     26  CB         8.9060    9.9400   52.1780 C.3    16  SER16       0.2116
     27  OG         7.7300    9.8920   51.3890 O.3    16  SER16      -0.2180
     28  N          3.4220    8.7500   44.2700 N.3    44  ASP44      -0.1239
     29  CA         2.6680   10.0070   44.2400 C.3    44  ASP44       0.1674
     30  C          3.0840   10.9120   43.0620 C.2    44  ASP44       0.2266
     31  O          2.3400   11.8260   42.6790 O.2    44  ASP44      -0.2867
     32  CB         2.8180   10.7620   45.5650 C.3    44  ASP44       0.1410
     33  CG         2.2370    9.9950   46.7540 C.2    44  ASP44       0.3668
     34  OD1        1.5550    8.9680   46.5470 O.co2  44  ASP44      -0.2456
     35  OD2        2.4570   10.4270   47.9050 O.co2  44  ASP44      -0.2456
     36  N          0.3300   10.7770   40.2970 N.3    47  TYR47      -0.1241
     37  CA        -1.0720   11.1060   40.5190 C.3    47  TYR47       0.1605
     38  C         -1.5660   11.7090   39.1990 C.2    47  TYR47       0.2264
     39  O         -0.8120   12.4090   38.5120 O.2    47  TYR47      -0.2867
     40  CB        -1.2180   12.1310   41.6360 C.3    47  TYR47       0.0534
     41  CG        -1.5130   11.4920   42.9700 C.ar   47  TYR47      -0.0201
     42  CD1       -0.6410   11.6420   44.0480 C.ar   47  TYR47      -0.0009
     43  CD2       -2.6720   10.7360   43.1540 C.ar   47  TYR47      -0.0009
     44  CE1       -0.9220   11.0540   45.2780 C.ar   47  TYR47       0.0417
     45  CE2       -2.9620   10.1460   44.3810 C.ar   47  TYR47       0.0417
     46  CZ        -2.0850   10.3120   45.4370 C.ar   47  TYR47       0.1957
     47  OH        -2.3890    9.7380   46.6600 O.3    47  TYR47      -0.2866
     48  N         -8.0250   10.5770   46.6780 N.3    65  PHE65      -0.1227
     49  CA        -6.6480   10.3780   46.2370 C.3    65  PHE65       0.1736
     50  C         -6.0650    9.0440   46.7270 C.2    65  PHE65       0.2595
     51  O         -4.8880    8.7450   46.4900 O.2    65  PHE65      -0.2718
     52  CB        -5.7590   11.5100   46.7510 C.3    65  PHE65       0.0547
     53  CG        -6.0360   12.8460   46.1250 C.ar   65  PHE65      -0.0202
     54  CD1       -6.6700   13.8530   46.8450 C.ar   65  PHE65      -0.0042
     55  CD2       -5.6130   13.1140   44.8230 C.ar   65  PHE65      -0.0042
     56  CE1       -6.8800   15.1230   46.2830 C.ar   65  PHE65      -0.0003
     57  CE2       -5.8110   14.3640   44.2520 C.ar   65  PHE65      -0.0003
     58  CZ        -6.4470   15.3770   44.9810 C.ar   65  PHE65      -0.0000
     59  N         -6.8930    8.2400   47.3890 N.am   66  ASP66      -0.1974
     60  CA        -6.4350    6.9710   47.9290 C.3    66  ASP66       0.1709
     61  C         -6.9000    5.7170   47.2020 C.2    66  ASP66       0.2293
     62  O         -6.5300    4.6060   47.5680 O.2    66  ASP66      -0.2864
     63  CB        -6.8140    6.9270   49.4030 C.3    66  ASP66       0.1436
     64  CG        -6.0690    7.9740   50.1910 C.2    66  ASP66       0.3671
     65  OD1       -5.0810    7.6050   50.8510 O.co2  66  ASP66      -0.2456
     66  OD2       -6.4410    9.1610   50.1100 O.co2  66  ASP66      -0.2456
     67  N          4.9350   16.0590   41.4890 N.3    94  TYR94      -0.1241
     68  CA         3.6000   16.4090   41.9730 C.3    94  TYR94       0.1605
     69  C          3.6400   17.4440   43.1010 C.2    94  TYR94       0.2264
     70  O          4.5380   17.4210   43.9360 O.2    94  TYR94      -0.2867
     71  CB         2.8930   15.1340   42.4450 C.3    94  TYR94       0.0534
     72  CG         1.4100   15.2980   42.6710 C.ar   94  TYR94      -0.0201
     73  CD1        0.5320   15.4390   41.6000 C.ar   94  TYR94      -0.0009
     74  CD2        0.8850   15.3090   43.9600 C.ar   94  TYR94      -0.0009
     75  CE1       -0.8300   15.5790   41.8070 C.ar   94  TYR94       0.0417
     76  CE2       -0.4730   15.4510   44.1760 C.ar   94  TYR94       0.0417
     77  CZ        -1.3240   15.5830   43.1000 C.ar   94  TYR94       0.1957
     78  OH        -2.6660   15.7220   43.3210 O.3    94  TYR94      -0.2866
     79  N          1.5110   18.7450   46.2190 N.3    96  PHE96      -0.1241
     80  CA         0.3600   18.4700   47.0820 C.3    96  PHE96       0.1605
     81  C         -0.3610   19.7380   47.5020 C.2    96  PHE96       0.2264
     82  O         -1.5410   19.7070   47.8320 O.2    96  PHE96      -0.2867
     83  CB         0.7720   17.7120   48.3510 C.3    96  PHE96       0.0534
     84  CG         1.3040   16.3350   48.0930 C.ar   96  PHE96      -0.0203
     85  CD1        2.6740   16.1030   48.0310 C.ar   96  PHE96      -0.0042
     86  CD2        0.4360   15.2660   47.9110 C.ar   96  PHE96      -0.0042
     87  CE1        3.1780   14.8250   47.7890 C.ar   96  PHE96      -0.0003
     88  CE2        0.9310   13.9770   47.6680 C.ar   96  PHE96      -0.0003
     89  CZ         2.3030   13.7590   47.6080 C.ar   96  PHE96      -0.0000
     90  N         -2.4580   20.3720   44.3410 N.3    99  HIS99      -0.1241
     91  CA        -3.0630   19.1720   43.7740 C.3    99  HIS99       0.1621
     92  C         -2.7770   19.0780   42.2880 C.2    99  HIS99       0.2264
     93  O         -3.6490   18.7050   41.5130 O.2    99  HIS99      -0.2867
     94  CB        -4.5790   19.1910   43.9720 C.3    99  HIS99       0.0745
     95  CG        -4.9980   19.4470   45.3830 C.ar   99  HIS99       0.0817
     96  ND1       -4.9200   18.4850   46.3670 N.ar   99  HIS99      -0.2268
     97  CD2       -5.4670   20.5660   45.9850 C.ar   99  HIS99       0.1154
     98  CE1       -5.3230   19.0010   47.5160 C.ar   99  HIS99       0.1986
     99  NE2       -5.6600   20.2630   47.3110 N.ar   99  HIS99      -0.2212
    100  N          8.3980    3.7180   46.1850 N.3   117  GLU117     -0.1231
    101  CA         7.5680    3.7700   47.3910 C.3   117  GLU117      0.1699
    102  C          6.2060    4.4170   47.1480 C.2   117  GLU117      0.2593
    103  O          6.0960    5.3880   46.3950 O.2   117  GLU117     -0.2718
    104  CB         8.3260    4.5320   48.5010 C.3   117  GLU117      0.0402
    105  CG         8.6230    6.0240   48.2070 C.3   117  GLU117      0.1161
    106  CD         7.4740    6.9630   48.5940 C.2   117  GLU117      0.3649
    107  OE1        7.4660    8.1280   48.1410 O.co2 117  GLU117     -0.2457
    108  OE2        6.5810    6.5470   49.3610 O.co2 117  GLU117     -0.2457
    109  N          5.1680    3.8620   47.7690 N.am  118  GLY118     -0.1942
    110  CA         3.8320    4.4210   47.6200 C.3   118  GLY118      0.2014
    111  C          2.8010    3.6560   48.4370 C.2   118  GLY118      0.2638
    112  O          3.0000    2.4870   48.7680 O.2   118  GLY118     -0.2714
    113  N          1.6970    4.3110   48.7670 N.am  119  ILE119     -0.1977
    114  CA         0.6410    3.6660   49.5450 C.3   119  ILE119      0.1596
    115  C          0.0200    2.4690   48.8260 C.2   119  ILE119      0.2287
    116  O         -0.6490    1.6540   49.4560 O.2   119  ILE119     -0.2864
    117  CB        -0.5070    4.6460   49.8860 C.3   119  ILE119      0.0276
    118  CG1       -0.9670    5.3770   48.6180 C.3   119  ILE119      0.0022
    119  CG2       -0.0520    5.6690   50.9410 C.3   119  ILE119      0.0022
    120  CD1       -2.3380    6.0740   48.7810 C.3   119  ILE119      0.0001
    121  N          0.0150   12.6440   60.0690 N.3   148  ARG148     -0.1245
    122  CA        -0.5400   13.2470   58.8610 C.3   148  ARG148      0.1563
    123  C         -1.1550   14.6150   59.1250 C.2   148  ARG148      0.2260
    124  O         -1.0040   15.5480   58.3210 O.2   148  ARG148     -0.2867
    125  CB        -1.6030   12.3390   58.2530 C.3   148  ARG148      0.0307
    126  CG        -2.3810   13.0750   57.1560 C.3   148  ARG148      0.0489
    127  CD        -2.7740   12.1480   56.0650 C.3   148  ARG148      0.2205
    128  NE        -3.5000   12.8460   55.0060 N.pl3 148  ARG148     -0.0865
    129  CZ        -3.8310   12.2700   53.8590 C.cat 148  ARG148      0.5346
    130  NH1       -3.4770   11.0060   53.6500 N.pl3 148  ARG148      0.1354
    131  NH2       -4.5300   12.9380   52.9480 N.pl3 148  ARG148      0.1354
    132  N          1.6950   17.0880   59.6330 N.3   151  ARG151     -0.1231
    133  CA         2.3770   17.2940   58.3570 C.3   151  ARG151      0.1694
    134  C          1.5550   18.1160   57.3630 C.2   151  ARG151      0.2592
    135  O          2.0670   19.0570   56.7560 O.2   151  ARG151     -0.2718
    136  CB         2.7300   15.9510   57.7130 C.3   151  ARG151      0.0321
    137  CG         3.3810   16.0650   56.3220 C.3   151  ARG151      0.0489
    138  CD         3.3870   14.7110   55.6040 C.3   151  ARG151      0.2205
    139  NE         2.0610   14.3360   55.1160 N.pl3 151  ARG151     -0.0865
    140  CZ         1.7490   13.1270   54.6540 C.cat 151  ARG151      0.5346
    141  NH1        2.6720   12.1630   54.6220 N.pl3 151  ARG151      0.1354
    142  NH2        0.5180   12.8810   54.2110 N.pl3 151  ARG151      0.1354
    143  N          0.2850   17.7690   57.1910 N.am  152  ASP152     -0.1974
    144  CA        -0.5390   18.4830   56.2160 C.3   152  ASP152      0.1709
    145  C         -0.8050   19.9450   56.5540 C.2   152  ASP152      0.2293
    146  O         -0.9420   20.7840   55.6610 O.2   152  ASP152     -0.2864
    147  CB        -1.8600   17.7460   55.9920 C.3   152  ASP152      0.1436
    148  CG        -1.6880   16.4680   55.1720 C.2   152  ASP152      0.3671
    149  OD1       -0.5430   16.0030   54.9840 O.co2 152  ASP152     -0.2456
    150  OD2       -2.7120   15.9160   54.7320 O.co2 152  ASP152     -0.2456
    151  N          1.5640   21.2320   53.7940 N.3   156  ARG156     -0.1245
    152  CA         0.7000   21.2060   52.6320 C.3   156  ARG156      0.1563
    153  C         -0.4410   22.2020   52.6720 C.2   156  ARG156      0.2260
    154  O         -1.3560   22.1300   51.8580 O.2   156  ARG156     -0.2867
    155  CB         0.2030   19.7740   52.4310 C.3   156  ARG156      0.0307
    156  CG         1.3610   18.7830   52.3530 C.3   156  ARG156      0.0489
    157  CD         0.9320   17.3500   52.0820 C.3   156  ARG156      0.2205
    158  NE         2.0890   16.4710   51.9260 N.pl3 156  ARG156     -0.0865
    159  CZ         2.0200   15.1760   51.6340 C.cat 156  ARG156      0.5346
    160  NH1        0.8410   14.5920   51.4560 N.pl3 156  ARG156      0.1354
    161  NH2        3.1310   14.4510   51.5420 N.pl3 156  ARG156      0.1354
    162  N         -3.0000   22.5170   54.5240 N.3   158  ARG158     -0.1245
    163  CA        -4.3530   21.9990   54.7450 C.3   158  ARG158      0.1563
    164  C         -4.9400   22.4300   56.0980 C.2   158  ARG158      0.2260
    165  O         -4.2050   22.6830   57.0530 O.2   158  ARG158     -0.2867
    166  CB        -4.3430   20.4670   54.6610 C.3   158  ARG158      0.0307
    167  CG        -3.7090   19.8760   53.3870 C.3   158  ARG158      0.0489
    168  CD        -4.4900   20.1500   52.1150 C.3   158  ARG158      0.2205
    169  NE        -3.7740   19.6350   50.9450 N.pl3 158  ARG158     -0.0865
    170  CZ        -3.7470   18.3580   50.5550 C.cat 158  ARG158      0.5346
    171  NH1       -4.4140   17.4240   51.2280 N.pl3 158  ARG158      0.1354
    172  NH2       -3.0250   18.0090   49.4950 N.pl3 158  ARG158      0.1354
    173  N        -11.3860   14.3220   55.1090 N.3   166  GLN166     -0.1245
    174  CA       -10.8040   13.5600   54.0030 C.3   166  GLN166      0.1566
    175  C        -10.3120   12.2000   54.4930 C.2   166  GLN166      0.2260
    176  O        -10.4770   11.1870   53.8020 O.2   166  GLN166     -0.2867
    177  CB        -9.6290   14.3210   53.3850 C.3   166  GLN166      0.0367
    178  CG        -9.0880   13.7260   52.0610 C.3   166  GLN166      0.0905
    179  CD        -7.8560   14.4700   51.5540 C.2   166  GLN166      0.2608
    180  OE1       -7.7320   15.6730   51.7480 O.2   166  GLN166     -0.2717
    181  NE2       -6.9510   13.7540   50.8890 N.am  166  GLN166     -0.0878
    182  N         -9.3710    8.2730   53.0210 N.3   171  VAL171     -0.1245
    183  CA        -8.1000    7.6520   53.3550 C.3   171  VAL171      0.1561
    184  C         -8.1920    6.3480   54.1170 C.2   171  VAL171      0.2260
    185  O         -7.5760    5.3540   53.7330 O.2   171  VAL171     -0.2867
    186  CB        -7.2030    8.6190   54.1500 C.3   171  VAL171      0.0252
    187  CG1       -5.8180    8.0060   54.3180 C.3   171  VAL171      0.0019
    188  CG2       -7.1080    9.9730   53.4200 C.3   171  VAL171      0.0019
@<TRIPOS>BOND
     1    39    38    2
     2    38    37    1
     3    36    37    1
     4    37    40    1
     5    67    68    1
     6    93    92    2
     7    73    75   ar
     8    73    72   ar
     9    40    41    1
    10    75    77   ar
    11    68    71    1
    12    68    69    1
    13    92    91    1
    14    71    72    1
    15    72    74   ar
    16    31    30    2
    17    41    43   ar
    18    41    42   ar
    19    30    29    1
    20    77    78    1
    21    77    76   ar
    22    69    70    2
    23    43    45   ar
    24    91    94    1
    25    91    90    1
    26    74    76   ar
    27    94    95    1
    28    42    44   ar
    29    29    28    1
    30    29    32    1
    31    57    55   ar
    32    57    58   ar
    33    45    46   ar
    34    55    53   ar
    35    58    56   ar
    36    44    46   ar
    37    95    97   ar
    38    95    96   ar
    39    46    47    1
    40    32    33    1
    41    97    99   ar
    42    53    52    1
    43    53    54   ar
    44   100   101    1
    45    79    80    1
    46    49    48    1
    47    49    50    1
    48    49    52    1
    49    56    54   ar
    50    96    98   ar
    51   103   102    2
    52    51    50    2
    53    34    33   ar
    54    50    59   am
    55    33    35   ar
    56    80    81    1
    57    80    83    1
    58   102   101    1
    59   102   109   am
    60    61    62    2
    61    61    60    1
    62    99    98   ar
    63    59    60    1
    64   101   104    1
    65    81    82    2
    66    89    88   ar
    67    89    87   ar
    68   110   109    1
    69   110   111    1
    70    88    86   ar
    71    87    85   ar
    72    86    84   ar
    73    60    63    1
    74    85    84   ar
    75    84    83    1
    76   107   106   ar
    77   105   104    1
    78   105   106    1
    79   111   113   am
    80   111   112    2
    81   106   108   ar
    82   118   120    1
    83   118   117    1
    84   113   114    1
    85   115   116    2
    86   115   114    1
    87    63    64    1
    88   172   170    1
    89   114   117    1
    90   117   119    1
    91    66    64   ar
    92    64    65   ar
    93   170   169    2
    94   170   171    1
    95   181   179   am
    96   169   168    1
    97    27    26    1
    98   160   159    1
    99    20    19    1
   100    20    21    1
   101   161   159    1
   102   179   180    2
   103   179   178    1
   104   159   158    2
   105   154   153    2
   106    19    18    1
   107   158   157    1
   108   178   177    1
   109   157   156    1
   110   168   167    1
   111    26    23    1
   112    23    22    1
   113    23    24    1
   114   156   155    1
   115   155   152    1
   116    25    24    2
   117   152   153    1
   118   152   151    1
   119    17    18    1
   120    17    14    1
   121    16    15    2
   122    22    15   am
   123   131   129    1
   124   182   183    1
   125    15    14    1
   126   183   184    1
   127   183   186    1
   128   177   174    1
   129   167   166    1
   130   188   186    1
   131   130   129    1
   132    14    13    1
   133   185   184    2
   134   176   175    2
   135   129   128    2
   136   174   175    1
   137   174   173    1
   138   186   187    1
   139   142   140    1
   140     6     5    1
   141     5     2    1
   142     5     7    1
   143   162   163    1
   144     2     1    1
   145     2     3    1
   146   141   140    1
   147   140   139    2
   148   166   163    1
   149   150   148   ar
   150   163   164    1
   151   149   148   ar
   152   128   127    1
   153   139   138    1
   154   148   147    1
   155   138   137    1
   156   146   145    2
   157     8     3   am
   158     8     9    1
   159     3     4    2
   160   147   144    1
   161   127   126    1
   162   164   165    2
   163   144   145    1
   164   144   143    1
   165   137   136    1
   166   135   134    2
   167     9    10    1
   168     9    12    1
   169   126   125    1
   170   143   134   am
   171   134   133    1
   172   136   133    1
   173    10    11    2
   174   125   122    1
   175   124   123    2
   176   133   132    1
   177   122   123    1
   178   122   121    1
