@<TRIPOS>MOLECULE
tmp/1ujkB00.pdb
 126 120 0 0 0
SMALL
GASTEIGER

@<TRIPOS>ATOM
      1  N         -2.6920   10.8490    2.3480 N.3    81  LYS81      -0.1231
      2  CA        -3.8060   10.9310    3.2900 C.3    81  LYS81       0.1693
      3  C         -3.2730   11.6110    4.5350 C.2    81  LYS81       0.2592
      4  O         -2.0880   11.4750    4.8560 O.2    81  LYS81      -0.2718
      5  CB        -4.3200    9.5390    3.6530 C.3    81  LYS81       0.0285
      6  CG        -4.9280    8.7950    2.4850 C.3    81  LYS81       0.0035
      7  CD        -5.5090    7.4640    2.9180 C.3    81  LYS81       0.0206
      8  CE        -6.1140    6.7290    1.7320 C.3    81  LYS81       0.1093
      9  NZ        -6.6160    5.3840    2.1200 N.3    81  LYS81      -0.1314
     10  N         -4.1270   12.3510    5.2330 N.am   82  PHE82      -0.1962
     11  CA        -3.6800   13.0280    6.4430 C.3    82  PHE82       0.1771
     12  C         -3.2700   11.9910    7.4810 C.2    82  PHE82       0.2619
     13  O         -2.4530   12.2680    8.3610 O.2    82  PHE82      -0.2715
     14  CB        -4.7790   13.9500    6.9750 C.3    82  PHE82       0.0574
     15  CG        -5.1150   15.0730    6.0400 C.ar   82  PHE82      -0.0200
     16  CD1       -4.1140   15.9160    5.5610 C.ar   82  PHE82      -0.0042
     17  CD2       -6.4230   15.2790    5.6190 C.ar   82  PHE82      -0.0042
     18  CE1       -4.4100   16.9460    4.6790 C.ar   82  PHE82      -0.0003
     19  CE2       -6.7350   16.3070    4.7370 C.ar   82  PHE82      -0.0003
     20  CZ        -5.7310   17.1440    4.2620 C.ar   82  PHE82      -0.0000
     21  N         -3.8240   10.7880    7.3620 N.am   83  ARG83      -0.1977
     22  CA        -3.4680    9.7060    8.2730 C.3    83  ARG83       0.1597
     23  C         -1.9440    9.5650    8.2980 C.2    83  ARG83       0.2287
     24  O         -1.3510    9.2670    9.3370 O.2    83  ARG83      -0.2864
     25  CB        -4.1020    8.3910    7.8090 C.3    83  ARG83       0.0334
     26  CG        -3.6980    7.1910    8.6430 C.3    83  ARG83       0.0492
     27  CD        -4.5570    5.9700    8.3330 C.3    83  ARG83       0.2205
     28  NE        -5.9410    6.1610    8.7570 N.pl3  83  ARG83      -0.0865
     29  CZ        -6.9800    6.2370    7.9290 C.cat  83  ARG83       0.5346
     30  NH1       -6.7980    6.1340    6.6170 N.pl3  83  ARG83       0.1354
     31  NH2       -8.2010    6.4230    8.4180 N.pl3  83  ARG83       0.1354
     32  N         -0.0760   13.6750    8.7000 N.3    86  ASN86      -0.1225
     33  CA        -0.0680   14.1850   10.0650 C.3    86  ASN86       0.1785
     34  C          1.1640   13.6790   10.8190 C.2    86  ASN86       0.2597
     35  O          1.6810   14.3590   11.7050 O.2    86  ASN86      -0.2718
     36  CB        -1.3420   13.7650   10.8090 C.3    86  ASN86       0.1169
     37  CG        -2.5560   14.5590   10.3770 C.2    86  ASN86       0.2627
     38  OD1       -2.4340   15.5620    9.6820 O.2    86  ASN86      -0.2716
     39  ND2       -3.7400   14.1190   10.8020 N.am   86  ASN86      -0.0877
     40  N          1.6340   12.4850   10.4720 N.am   87  GLU87      -0.1979
     41  CA         2.8120   11.9480   11.1430 C.3    87  GLU87       0.1602
     42  C          4.0600   12.7490   10.7540 C.2    87  GLU87       0.2287
     43  O          4.9800   12.8980   11.5590 O.2    87  GLU87      -0.2864
     44  CB         2.9930   10.4600   10.8240 C.3    87  GLU87       0.0415
     45  CG         1.8540    9.5870   11.3500 C.3    87  GLU87       0.1163
     46  CD         1.5240    9.8670   12.8150 C.2    87  GLU87       0.3649
     47  OE1        2.4020    9.6670   13.6790 O.co2  87  GLU87      -0.2457
     48  OE2        0.3860   10.2940   13.1050 O.co2  87  GLU87      -0.2457
     49  N          3.8900   15.9780    9.8240 N.3    89  ILE89      -0.1231
     50  CA         3.6490   17.2860   10.4170 C.3    89  ILE89       0.1692
     51  C          4.1360   17.2880   11.8600 C.2    89  ILE89       0.2591
     52  O          4.7310   18.2590   12.3130 O.2    89  ILE89      -0.2718
     53  CB         2.1450   17.6460   10.3780 C.3    89  ILE89       0.0266
     54  CG1        1.7320   17.9540    8.9350 C.3    89  ILE89       0.0019
     55  CG2        1.8570   18.8450   11.2880 C.3    89  ILE89       0.0020
     56  CD1        0.2360   18.0410    8.7300 C.3    89  ILE89       0.0001
     57  N          3.8820   16.1950   12.5750 N.am   90  LYS90      -0.1980
     58  CA         4.3110   16.0650   13.9660 C.3    90  LYS90       0.1596
     59  C          5.8250   16.1970   14.1070 C.2    90  LYS90       0.2287
     60  O          6.3200   16.7410   15.0930 O.2    90  LYS90      -0.2864
     61  CB         3.8700   14.7140   14.5290 C.3    90  LYS90       0.0298
     62  CG         2.3750   14.5920   14.7580 C.3    90  LYS90       0.0038
     63  CD         2.0270   13.1990   15.2280 C.3    90  LYS90       0.0206
     64  CE         0.5400   13.0500   15.4660 C.3    90  LYS90       0.1093
     65  NZ         0.2060   11.6540   15.8630 N.3    90  LYS90      -0.1314
     66  N          5.1310   22.5540   17.6900 N.3    95  LYS95      -0.1231
     67  CA         4.0500   22.2140   18.6020 C.3    95  LYS95       0.1693
     68  C          4.0710   20.7420   18.9990 C.2    95  LYS95       0.2592
     69  O          3.4340   20.3540   19.9770 O.2    95  LYS95      -0.2718
     70  CB         2.7070   22.5610   17.9550 C.3    95  LYS95       0.0285
     71  CG         2.6110   24.0110   17.4990 C.3    95  LYS95       0.0035
     72  CD         1.3950   24.2720   16.6150 C.3    95  LYS95       0.0206
     73  CE         0.0850   24.1040   17.3690 C.3    95  LYS95       0.1093
     74  NZ        -0.1440   22.6970   17.8060 N.3    95  LYS95      -0.1314
     75  N          4.8080   19.9230   18.2510 N.am   96  TYR96      -0.1976
     76  CA         4.8750   18.4990   18.5530 C.3    96  TYR96       0.1639
     77  C          6.2850   17.9600   18.8000 C.2    96  TYR96       0.2290
     78  O          6.8340   18.1290   19.8870 O.2    96  TYR96      -0.2864
     79  CB         4.1900   17.7000   17.4390 C.3    96  TYR96       0.0560
     80  CG         2.7740   18.1570   17.1760 C.ar   96  TYR96      -0.0198
     81  CD1        2.5030   19.1410   16.2280 C.ar   96  TYR96      -0.0009
     82  CD2        1.7100   17.6460   17.9150 C.ar   96  TYR96      -0.0009
     83  CE1        1.2050   19.6070   16.0220 C.ar   96  TYR96       0.0417
     84  CE2        0.4090   18.1040   17.7210 C.ar   96  TYR96       0.0417
     85  CZ         0.1640   19.0850   16.7750 C.ar   96  TYR96       0.1957
     86  OH        -1.1170   19.5480   16.5860 O.3    96  TYR96      -0.2866
     87  N         -4.1200   16.5660   -0.8240 N.3   125  LYS125     -0.1245
     88  CA        -3.9330   16.6600    0.6150 C.3   125  LYS125      0.1561
     89  C         -2.4740   16.9360    0.9520 C.2   125  LYS125      0.2260
     90  O         -2.1770   17.5460    1.9730 O.2   125  LYS125     -0.2867
     91  CB        -4.4290   15.3890    1.3080 C.3   125  LYS125      0.0271
     92  CG        -5.9500   15.2650    1.2860 C.3   125  LYS125      0.0035
     93  CD        -6.4350   13.9950    1.9700 C.3   125  LYS125      0.0206
     94  CE        -7.9590   13.9210    1.9610 C.3   125  LYS125      0.1093
     95  NZ        -8.4300   12.6690    2.6180 N.3   125  LYS125     -0.1314
     96  N         -2.2330   20.5480    0.5830 N.3   128  GLU128     -0.1231
     97  CA        -2.9370   21.1920    1.6840 C.3   128  GLU128      0.1699
     98  C         -2.0540   21.1790    2.9380 C.2   128  GLU128      0.2592
     99  O         -1.9720   22.1710    3.6590 O.2   128  GLU128     -0.2718
    100  CB        -4.2500   20.4640    1.9570 C.3   128  GLU128      0.0402
    101  CG        -5.2560   21.2700    2.7570 C.3   128  GLU128      0.1161
    102  CD        -6.5840   20.5460    2.8910 C.2   128  GLU128      0.3649
    103  OE1       -7.0800   20.0260    1.8670 O.co2 128  GLU128     -0.2457
    104  OE2       -7.1330   20.5060    4.0120 O.co2 128  GLU128     -0.2457
    105  N         -1.4000   20.0490    3.1920 N.am  129  ALA129     -0.1980
    106  CA        -0.5140   19.9220    4.3450 C.3   129  ALA129      0.1597
    107  C          0.6490   20.9060    4.2090 C.2   129  ALA129      0.2287
    108  O          1.0140   21.5970    5.1640 O.2   129  ALA129     -0.2864
    109  CB         0.0190   18.5020    4.4410 C.3   129  ALA129      0.0319
    110  N         -0.4220   24.5020    4.7330 N.3   132  MET132     -0.1245
    111  CA        -0.6310   24.8060    6.1400 C.3   132  MET132      0.1570
    112  C          0.6950   25.1210    6.8210 C.2   132  MET132      0.2261
    113  O          0.7710   26.0220    7.6600 O.2   132  MET132     -0.2867
    114  CB        -1.2980   23.6300    6.8560 C.3   132  MET132      0.0387
    115  CG        -1.6070   23.9100    8.3150 C.3   132  MET132      0.0595
    116  SD        -1.9220   22.4090    9.2420 S.3   132  MET132     -0.1393
    117  CE        -0.2180   21.8280    9.4620 C.3   132  MET132      0.0692
    118  N          1.7590   28.6680    8.4810 N.3   136  GLN136     -0.1245
    119  CA         2.2280   28.7570    9.8590 C.3   136  GLN136      0.1566
    120  C          3.6690   29.2470    9.9840 C.2   136  GLN136      0.2260
    121  O          4.1780   29.4110   11.0910 O.2   136  GLN136     -0.2867
    122  CB         2.0790   27.3980   10.5490 C.3   136  GLN136      0.0367
    123  CG         0.6350   26.9980   10.7920 C.3   136  GLN136      0.0905
    124  CD         0.4940   25.5750   11.2960 C.2   136  GLN136      0.2608
    125  OE1       -0.6020   25.1360   11.6390 O.2   136  GLN136     -0.2717
    126  NE2        1.6010   24.8430   11.3320 N.am  136  GLN136     -0.0878
@<TRIPOS>BOND
     1    87    88    1
     2    96    97    1
     3    88    89    1
     4    88    91    1
     5    89    90    2
     6    92    91    1
     7    92    93    1
     8    97   100    1
     9    97    98    1
    10     8     9    1
    11     8     7    1
    12   103   102   ar
    13   100   101    1
    14    94    93    1
    15    94    95    1
    16     1     2    1
    17     6     7    1
    18     6     5    1
    19   101   102    1
    20   102   104   ar
    21    98   105   am
    22    98    99    2
    23   105   106    1
    24     2     5    1
    25     2     3    1
    26   107   106    1
    27   107   108    2
    28    20    18   ar
    29    20    19   ar
    30   106   109    1
    31     3     4    2
    32     3    10   am
    33    18    16   ar
    34   110   111    1
    35    19    17   ar
    36    10    11    1
    37    16    15   ar
    38    17    15   ar
    39    15    14    1
    40   111   112    1
    41   111   114    1
    42    11    14    1
    43    11    12    1
    44    30    29    1
    45   112   113    2
    46   114   115    1
    47    21    12   am
    48    21    22    1
    49    12    13    2
    50    25    22    1
    51    25    26    1
    52    29    31    1
    53    29    28    2
    54    22    23    1
    55    23    24    2
    56   115   116    1
    57    27    26    1
    58    27    28    1
    59   118   119    1
    60    32    33    1
    61    56    54    1
    62    54    53    1
    63   116   117    1
    64    38    37    2
    65    49    50    1
    66   119   120    1
    67   119   122    1
    68   120   121    2
    69    33    36    1
    70    33    34    1
    71    37    39   am
    72    37    36    1
    73    53    50    1
    74    53    55    1
    75    50    51    1
    76    40    34   am
    77    40    41    1
    78   122   123    1
    79    42    41    1
    80    42    43    2
    81   123   124    1
    82    34    35    2
    83    44    41    1
    84    44    45    1
    85   124   126   am
    86   124   125    2
    87    45    46    1
    88    51    52    2
    89    51    57   am
    90    57    58    1
    91    46    48   ar
    92    46    47   ar
    93    58    59    1
    94    58    61    1
    95    59    60    2
    96    61    62    1
    97    62    63    1
    98    63    64    1
    99    64    65    1
   100    83    81   ar
   101    83    85   ar
   102    81    80   ar
   103    86    85    1
   104    72    73    1
   105    72    71    1
   106    85    84   ar
   107    80    79    1
   108    80    82   ar
   109    73    74    1
   110    79    76    1
   111    71    70    1
   112    66    67    1
   113    84    82   ar
   114    70    67    1
   115    75    76    1
   116    75    68   am
   117    76    77    1
   118    67    68    1
   119    77    78    2
   120    68    69    2
