@<TRIPOS>MOLECULE
tmp/1ujpA00.pdb
 120 115 0 0 0
SMALL
GASTEIGER

@<TRIPOS>ATOM
      1  N         11.2560   -0.0420    5.4870 N.3    21  TYR21      -0.1241
      2  CA        12.6240   -0.1480    5.9640 C.3    21  TYR21       0.1605
      3  C         12.5190   -0.3610    7.4620 C.2    21  TYR21       0.2264
      4  O         11.9710    0.4790    8.1750 O.2    21  TYR21      -0.2867
      5  CB        13.3780    1.1420    5.6220 C.3    21  TYR21       0.0534
      6  CG        14.6990    1.3730    6.3260 C.ar   21  TYR21      -0.0201
      7  CD1       15.5050    0.3140    6.7490 C.ar   21  TYR21      -0.0009
      8  CD2       15.1680    2.6720    6.5180 C.ar   21  TYR21      -0.0009
      9  CE1       16.7510    0.5500    7.3460 C.ar   21  TYR21       0.0417
     10  CE2       16.4030    2.9180    7.1060 C.ar   21  TYR21       0.0417
     11  CZ        17.1870    1.8570    7.5160 C.ar   21  TYR21       0.1957
     12  OH        18.4140    2.1130    8.0840 O.3    21  TYR21      -0.2866
     13  N         13.6320   -3.3940    3.0380 N.3    47  GLU47      -0.1245
     14  CA        14.9720   -2.9980    3.4550 C.3    47  GLU47       0.1567
     15  C         15.1170   -3.3500    4.9350 C.2    47  GLU47       0.2260
     16  O         14.2460   -3.0200    5.7470 O.2    47  GLU47      -0.2867
     17  CB        15.1850   -1.4900    3.2570 C.3    47  GLU47       0.0388
     18  CG        16.5370   -0.9800    3.7460 C.3    47  GLU47       0.1160
     19  CD        16.7210    0.5170    3.5550 C.2    47  GLU47       0.3649
     20  OE1       17.7640    1.0450    4.0030 O.co2  47  GLU47      -0.2457
     21  OE2       15.8330    1.1640    2.9600 O.co2  47  GLU47      -0.2457
     22  N         19.5320   10.3180   10.1280 N.3    55  GLY55      -0.1225
     23  CA        18.7670   11.1530   11.0460 C.3    55  GLY55       0.1811
     24  C         18.5920   10.4790   12.4090 C.2    55  GLY55       0.2280
     25  O         18.9170    9.3140   12.6010 O.2    55  GLY55      -0.2866
     26  N         16.2040    7.0800   13.0170 N.3    58  ILE58      -0.1245
     27  CA        16.8210    5.7970   12.7090 C.3    58  ILE58       0.1561
     28  C         17.9240    5.4810   13.7190 C.2    58  ILE58       0.2260
     29  O         18.0770    4.3390   14.1450 O.2    58  ILE58      -0.2867
     30  CB        17.4160    5.7930   11.2830 C.3    58  ILE58       0.0252
     31  CG1       16.3200    6.1030   10.2570 C.3    58  ILE58       0.0019
     32  CG2       18.0540    4.4480   10.9870 C.3    58  ILE58       0.0019
     33  CD1       15.1970    5.0760   10.2070 C.3    58  ILE58       0.0001
     34  N         19.2990    5.1020   -4.8840 N.3   168  TYR168     -0.1241
     35  CA        18.5450    5.6980   -3.7900 C.3   168  TYR168      0.1605
     36  C         18.8760    7.1640   -3.5640 C.2   168  TYR168      0.2264
     37  O         20.0260    7.5220   -3.3010 O.2   168  TYR168     -0.2867
     38  CB        18.8420    4.8870   -2.5280 C.3   168  TYR168      0.0534
     39  CG        18.0090    5.1900   -1.3050 C.ar  168  TYR168     -0.0201
     40  CD1       18.5520    5.0420   -0.0320 C.ar  168  TYR168     -0.0009
     41  CD2       16.6720    5.5770   -1.4090 C.ar  168  TYR168     -0.0009
     42  CE1       17.7890    5.2660    1.1090 C.ar  168  TYR168      0.0417
     43  CE2       15.9040    5.8080   -0.2730 C.ar  168  TYR168      0.0417
     44  CZ        16.4680    5.6540    0.9790 C.ar  168  TYR168      0.1957
     45  OH        15.7160    5.9200    2.0980 O.3   168  TYR168     -0.2866
     46  N         18.2310   10.2920   -1.2060 N.3   170  VAL170     -0.1231
     47  CA        17.7440   10.5860    0.1530 C.3   170  VAL170      0.1692
     48  C         17.9070   12.0650    0.5220 C.2   170  VAL170      0.2593
     49  O         18.8910   12.7100    0.1870 O.2   170  VAL170     -0.2718
     50  CB        18.5140    9.7480    1.1790 C.3   170  VAL170      0.0266
     51  CG1       18.2640    8.2520    0.9720 C.3   170  VAL170      0.0020
     52  CG2       19.9920   10.0570    1.0900 C.3   170  VAL170      0.0020
     53  N         16.9100   12.5530    1.2500 N.am  171  SER171     -0.1938
     54  CA        16.8930   13.9180    1.7470 C.3   171  SER171      0.2055
     55  C         16.6710   13.6460    3.2310 C.2   171  SER171      0.2642
     56  O         15.5320   13.5350    3.6880 O.2   171  SER171     -0.2714
     57  CB        15.7380   14.7010    1.1230 C.3   171  SER171      0.2130
     58  OG        15.6030   15.9740    1.7340 O.3   171  SER171     -0.2179
     59  N         17.7660   13.5400    3.9800 N.am  172  VAL172     -0.1977
     60  CA        17.6970   13.2520    5.4080 C.3   172  VAL172      0.1596
     61  C         17.4960   14.6070    6.0820 C.2   172  VAL172      0.2287
     62  O         18.4610   15.2690    6.4700 O.2   172  VAL172     -0.2864
     63  CB        18.9960   12.6130    5.9540 C.3   172  VAL172      0.0276
     64  CG1       18.9230   12.4940    7.4690 C.3   172  VAL172      0.0022
     65  CG2       19.2050   11.2420    5.3290 C.3   172  VAL172      0.0022
     66  N         13.8760    8.6110   -0.3630 N.3   192  GLY192     -0.1210
     67  CA        13.6160    8.6080    1.0640 C.3   192  GLY192      0.1956
     68  C         13.5320   10.0590    1.4980 C.2   192  GLY192      0.2612
     69  O         14.5480   10.7580    1.5440 O.2   192  GLY192     -0.2717
     70  N         12.3220   10.5230    1.7950 N.am  193  PHE193     -0.1962
     71  CA        12.0960   11.9130    2.2020 C.3   193  PHE193      0.1771
     72  C         11.2540   12.0210    3.4740 C.2   193  PHE193      0.2620
     73  O         10.5390   13.0080    3.6740 O.2   193  PHE193     -0.2715
     74  CB        11.3960   12.6840    1.0740 C.3   193  PHE193      0.0574
     75  CG        12.3180   13.1510   -0.0220 C.ar  193  PHE193     -0.0200
     76  CD1       12.5380   14.5110   -0.2230 C.ar  193  PHE193     -0.0042
     77  CD2       12.9560   12.2390   -0.8590 C.ar  193  PHE193     -0.0042
     78  CE1       13.3790   14.9580   -1.2420 C.ar  193  PHE193     -0.0003
     79  CE2       13.8000   12.6760   -1.8830 C.ar  193  PHE193     -0.0003
     80  CZ        14.0100   14.0380   -2.0730 C.ar  193  PHE193     -0.0000
     81  N         11.3360   11.0090    4.3280 N.am  194  GLY194     -0.1940
     82  CA        10.5730   11.0230    5.5660 C.3   194  GLY194      0.2014
     83  C          9.0680   10.9320    5.3640 C.2   194  GLY194      0.2638
     84  O          8.2970   11.4730    6.1590 O.2   194  GLY194     -0.2714
     85  N          8.6450   10.2500    4.3020 N.am  195  VAL195     -0.1977
     86  CA         7.2240   10.0890    3.9990 C.3   195  VAL195      0.1596
     87  C          6.5120    9.4680    5.1960 C.2   195  VAL195      0.2287
     88  O          6.9440    8.4420    5.7200 O.2   195  VAL195     -0.2864
     89  CB         7.0310    9.2020    2.7480 C.3   195  VAL195      0.0276
     90  CG1        5.5620    8.8530    2.5650 C.3   195  VAL195      0.0022
     91  CG2        7.5490    9.9400    1.5210 C.3   195  VAL195      0.0022
     92  N         10.8340    4.7420    0.0460 N.3   211  VAL211     -0.1231
     93  CA        11.1920    4.0380    1.2640 C.3   211  VAL211      0.1692
     94  C         10.4470    4.6630    2.4330 C.2   211  VAL211      0.2592
     95  O         10.2750    5.8830    2.4920 O.2   211  VAL211     -0.2718
     96  CB        12.7130    4.1250    1.5270 C.3   211  VAL211      0.0266
     97  CG1       13.0420    3.5480    2.8930 C.3   211  VAL211      0.0020
     98  CG2       13.4690    3.3740    0.4490 C.3   211  VAL211      0.0020
     99  N          9.9850    3.8210    3.3490 N.am  212  VAL212     -0.1966
    100  CA         9.2900    4.2830    4.5430 C.3   212  VAL212      0.1727
    101  C         10.0590    3.6980    5.7210 C.2   212  VAL212      0.2617
    102  O          9.9620    2.5070    6.0100 O.2   212  VAL212     -0.2715
    103  CB         7.8280    3.7920    4.5770 C.3   212  VAL212      0.0290
    104  CG1        7.1380    4.3000    5.8380 C.3   212  VAL212      0.0023
    105  CG2        7.0890    4.2770    3.3350 C.3   212  VAL212      0.0023
    106  N         10.8380    4.5460    6.3870 N.am  213  GLY213     -0.1940
    107  CA        11.6370    4.0900    7.5080 C.3   213  GLY213      0.2014
    108  C         11.3620    4.8100    8.8130 C.2   213  GLY213      0.2640
    109  O         10.9070    4.1940    9.7760 O.2   213  GLY213     -0.2714
    110  N         11.6320    6.1100    8.8520 N.am  214  SER214     -0.1935
    111  CA        11.4120    6.8810   10.0740 C.3   214  SER214      0.2055
    112  C          9.9730    6.8140   10.5750 C.2   214  SER214      0.2642
    113  O          9.7440    6.7280   11.7800 O.2   214  SER214     -0.2714
    114  CB        11.8280    8.3410    9.8650 C.3   214  SER214      0.2130
    115  OG        13.2290    8.4520    9.6910 O.3   214  SER214     -0.2179
    116  N          9.0060    6.8510    9.6610 N.am  215  ALA215     -0.1977
    117  CA         7.6020    6.7870   10.0550 C.3   215  ALA215      0.1597
    118  C          7.2860    5.4640   10.7520 C.2   215  ALA215      0.2287
    119  O          6.4400    5.4130   11.6490 O.2   215  ALA215     -0.2864
    120  CB         6.7000    6.9720    8.8380 C.3   215  ALA215      0.0319
@<TRIPOS>BOND
     1    34    35    1
     2    35    36    1
     3    35    38    1
     4    36    37    2
     5    38    39    1
     6    80    79   ar
     7    80    78   ar
     8    79    77   ar
     9    41    39   ar
    10    41    43   ar
    11    39    40   ar
    12    78    76   ar
    13    46    47    1
    14    77    75   ar
    15    66    67    1
    16    43    44   ar
    17    76    75   ar
    18    40    42   ar
    19    75    74    1
    20    92    93    1
    21    47    48    1
    22    47    50    1
    23    49    48    2
    24    98    96    1
    25    48    53   am
    26    51    50    1
    27    44    42   ar
    28    44    45    1
    29    67    68    1
    30    74    71    1
    31    52    50    1
    32    57    58    1
    33    57    54    1
    34    53    54    1
    35    93    96    1
    36    93    94    1
    37    68    69    2
    38    68    70   am
    39    91    89    1
    40    96    97    1
    41    54    55    1
    42    70    71    1
    43    71    72    1
    44    94    95    2
    45    94    99   am
    46    90    89    1
    47    89    86    1
    48    21    19   ar
    49    13    14    1
    50    55    56    2
    51    55    59   am
    52    17    14    1
    53    17    18    1
    54   105   103    1
    55    99   100    1
    56    14    15    1
    57    72    73    2
    58    72    81   am
    59    19    18    1
    60    19    20   ar
    61    59    60    1
    62    86    85    1
    63    86    87    1
    64    85    83   am
    65    81    82    1
    66   100   103    1
    67   100   101    1
    68   103   104    1
    69    15    16    2
    70    87    88    2
    71    65    63    1
    72    83    82    1
    73    83    84    2
    74    60    63    1
    75    60    61    1
    76     1     2    1
    77     5     2    1
    78     5     6    1
    79   101   102    2
    80   101   106   am
    81    63    64    1
    82     2     3    1
    83    61    62    2
    84     6     8   ar
    85     6     7   ar
    86   106   107    1
    87     8    10   ar
    88     7     9   ar
    89    10    11   ar
    90     9    11   ar
    91     3     4    2
    92   107   108    1
    93    11    12    1
    94   108   110   am
    95   108   109    2
    96   120   117    1
    97   110   111    1
    98   116   117    1
    99   116   112   am
   100   115   114    1
   101   114   111    1
   102   117   118    1
   103   111   112    1
   104    22    23    1
   105    33    31    1
   106    31    30    1
   107   112   113    2
   108   118   119    2
   109    32    30    1
   110    23    24    1
   111    30    27    1
   112    24    25    2
   113    27    26    1
   114    27    28    1
   115    28    29    2
