@<TRIPOS>MOLECULE
tmp/1ujwA01.pdb
 136 134 0 0 0
SMALL
GASTEIGER

@<TRIPOS>ATOM
      1  N        -14.0540   42.7230  109.6410 N.3   141  TRP141     -0.1227
      2  CA       -14.6520   43.0780  108.3660 C.3   141  TRP141      0.1737
      3  C        -13.9410   44.3330  107.8620 C.2   141  TRP141      0.2596
      4  O        -13.4260   45.1320  108.6390 O.2   141  TRP141     -0.2718
      5  CB       -16.1950   43.1830  108.4930 C.3   141  TRP141      0.0564
      6  CG       -16.8790   44.5020  108.1910 C.ar  141  TRP141      0.0003
      7  CD1      -16.8980   45.1990  107.0010 C.ar  141  TRP141      0.0946
      8  CD2      -17.7050   45.2450  109.0960 C.ar  141  TRP141      0.0152
      9  NE1      -17.6560   46.3430  107.1330 N.ar  141  TRP141     -0.2442
     10  CE2      -18.1630   46.3950  108.4080 C.ar  141  TRP141      0.0810
     11  CE3      -18.0960   45.0600  110.4410 C.ar  141  TRP141      0.0012
     12  CZ2      -18.9920   47.3460  109.0140 C.ar  141  TRP141      0.0191
     13  CZ3      -18.9010   46.0000  111.0450 C.ar  141  TRP141      0.0001
     14  CH2      -19.3480   47.1350  110.3320 C.ar  141  TRP141      0.0015
     15  N        -13.8610   44.4800  106.5540 N.am  142  GLY142     -0.1942
     16  CA       -13.0520   45.5410  105.9980 C.3   142  GLY142      0.2014
     17  C        -13.3500   45.8390  104.5500 C.2   142  GLY142      0.2640
     18  O        -14.1160   45.1350  103.8950 O.2   142  GLY142     -0.2714
     19  N        -12.7280   46.9040  104.0630 N.am  143  SER143     -0.1935
     20  CA       -12.7990   47.3050  102.6630 C.3   143  SER143      0.2055
     21  C        -12.5520   46.1290  101.7430 C.2   143  SER143      0.2643
     22  O        -12.0570   45.0940  102.1680 O.2   143  SER143     -0.2714
     23  CB       -11.7670   48.3850  102.3940 C.3   143  SER143      0.2130
     24  OG       -12.0230   49.5000  103.2200 O.3   143  SER143     -0.2179
     25  N        -12.8910   46.2990  100.4820 N.am  144  ASN144     -0.1957
     26  CA       -12.7560   45.2600   99.4850 C.3   144  ASN144      0.1819
     27  C        -13.2700   43.9180   99.9360 C.2   144  ASN144      0.2622
     28  O        -12.6530   42.9060   99.6570 O.2   144  ASN144     -0.2715
     29  CB       -11.3010   45.1480   99.0540 C.3   144  ASN144      0.1195
     30  CG       -10.9340   46.1990   98.0360 C.2   144  ASN144      0.2630
     31  OD1      -10.7030   45.8970   96.8450 O.2   144  ASN144     -0.2716
     32  ND2      -10.9010   47.4500   98.4830 N.am  144  ASN144     -0.0877
     33  N        -14.3960   43.9130  100.6420 N.am  145  SER145     -0.1950
     34  CA       -15.0390   42.6820  101.1080 C.3   145  SER145      0.1924
     35  C        -14.1700   41.8060  101.9960 C.2   145  SER145      0.2314
     36  O        -14.3650   40.5950  102.0460 O.2   145  SER145     -0.2863
     37  CB       -15.5450   41.8560   99.9320 C.3   145  SER145      0.2116
     38  OG       -16.5650   42.5620   99.2570 O.3   145  SER145     -0.2180
     39  N        -11.4550   40.7140   98.1690 N.3   173  HIS173     -0.1241
     40  CA       -11.3830   41.0970   96.7250 C.3   173  HIS173      0.1621
     41  C        -10.2300   42.0710   96.3620 C.2   173  HIS173      0.2264
     42  O         -9.3970   42.4160   97.2190 O.2   173  HIS173     -0.2867
     43  CB       -12.6980   41.7060   96.2370 C.3   173  HIS173      0.0745
     44  CG       -13.9060   40.9230   96.6250 C.ar  173  HIS173      0.0817
     45  ND1      -13.8490   39.5860   96.9580 N.ar  173  HIS173     -0.2268
     46  CD2      -15.2080   41.2890   96.7380 C.ar  173  HIS173      0.1154
     47  CE1      -15.0640   39.1650   97.2720 C.ar  173  HIS173      0.1986
     48  NE2      -15.9060   40.1790   97.1510 N.ar  173  HIS173     -0.2212
     49  N         -2.9780   53.4980  120.3220 N.3   498  TRP498     -0.1241
     50  CA        -2.9490   54.1840  119.0440 C.3   498  TRP498      0.1605
     51  C         -1.6810   53.7560  118.3540 C.2   498  TRP498      0.2264
     52  O         -0.7730   53.1970  118.9840 O.2   498  TRP498     -0.2867
     53  CB        -2.9910   55.7160  119.1970 C.3   498  TRP498      0.0550
     54  CG        -4.3310   56.3210  119.6420 C.ar  498  TRP498      0.0003
     55  CD1       -4.8270   56.3600  120.9100 C.ar  498  TRP498      0.0946
     56  CD2       -5.2880   57.0300  118.8320 C.ar  498  TRP498      0.0152
     57  NE1       -6.0350   57.0170  120.9400 N.ar  498  TRP498     -0.2442
     58  CE2       -6.3440   57.4290  119.6730 C.ar  498  TRP498      0.0810
     59  CE3       -5.3710   57.3500  117.4700 C.ar  498  TRP498      0.0012
     60  CZ2       -7.4560   58.1190  119.2030 C.ar  498  TRP498      0.0191
     61  CZ3       -6.4790   58.0330  117.0080 C.ar  498  TRP498      0.0001
     62  CH2       -7.5010   58.4130  117.8680 C.ar  498  TRP498      0.0015
     63  N         -3.1910   54.7330  110.1570 N.3   531  LEU531     -0.1245
     64  CA        -3.6320   54.9900  111.5310 C.3   531  LEU531      0.1561
     65  C         -4.4220   53.8280  112.0890 C.2   531  LEU531      0.2260
     66  O         -5.2640   53.2590  111.4090 O.2   531  LEU531     -0.2867
     67  CB        -4.4630   56.2650  111.5910 C.3   531  LEU531      0.0270
     68  CG        -5.4710   56.5130  112.7260 C.3   531  LEU531      0.0019
     69  CD1       -4.7880   56.8190  114.0450 C.3   531  LEU531      0.0001
     70  CD2       -6.3780   57.6610  112.2970 C.3   531  LEU531      0.0001
     71  N         -6.0460   51.9990  115.9190 N.3   533  VAL533     -0.1245
     72  CA        -6.4010   52.0550  117.3240 C.3   533  VAL533      0.1561
     73  C         -7.0620   50.7870  117.7840 C.2   533  VAL533      0.2260
     74  O         -7.4370   49.9330  116.9890 O.2   533  VAL533     -0.2867
     75  CB        -7.3080   53.2850  117.6700 C.3   533  VAL533      0.0252
     76  CG1       -6.9610   54.5240  116.7880 C.3   533  VAL533      0.0019
     77  CG2       -8.8270   52.9430  117.6020 C.3   533  VAL533      0.0019
     78  N         -9.5960   49.0560  115.3860 N.3   545  GLY545     -0.1210
     79  CA        -9.8800   49.6240  114.0770 C.3   545  GLY545      0.1956
     80  C         -8.6080   49.9790  113.3520 C.2   545  GLY545      0.2612
     81  O         -7.5670   50.0310  113.9770 O.2   545  GLY545     -0.2717
     82  N         -8.6850   50.2410  112.0510 N.am  546  LYS546     -0.1965
     83  CA        -7.5320   50.7480  111.2930 C.3   546  LYS546      0.1728
     84  C         -7.9210   51.4510  109.9850 C.2   546  LYS546      0.2616
     85  O         -8.9660   51.1770  109.3900 O.2   546  LYS546     -0.2715
     86  CB        -6.5420   49.6220  110.9570 C.3   546  LYS546      0.0311
     87  CG        -5.3280   50.1150  110.1210 C.3   546  LYS546      0.0038
     88  CD        -4.0570   49.2270  110.1700 C.3   546  LYS546      0.0206
     89  CE        -3.8970   48.3770  108.9370 C.3   546  LYS546      0.1093
     90  NZ        -5.0200   47.4270  108.9530 N.3   546  LYS546     -0.1314
     91  N         -7.0640   52.3590  109.5370 N.am  547  ILE547     -0.1977
     92  CA        -7.0850   52.7870  108.1670 C.3   547  ILE547      0.1596
     93  C         -5.6890   52.7260  107.6080 C.2   547  ILE547      0.2287
     94  O         -4.8130   53.4570  108.0660 O.2   547  ILE547     -0.2864
     95  CB        -7.5670   54.2240  108.0560 C.3   547  ILE547      0.0276
     96  CG1       -8.7340   54.5030  109.0210 C.3   547  ILE547      0.0022
     97  CG2       -7.9480   54.5000  106.6080 C.3   547  ILE547      0.0022
     98  CD1       -8.9890   55.9950  109.2690 C.3   547  ILE547      0.0001
     99  N         -7.2230   54.0440  100.2520 N.3   566  ARG566     -0.1245
    100  CA        -7.6550   54.1100  101.6490 C.3   566  ARG566      0.1563
    101  C         -8.5880   52.9340  101.8840 C.2   566  ARG566      0.2260
    102  O         -9.5120   52.7000  101.1060 O.2   566  ARG566     -0.2867
    103  CB        -8.2350   55.4920  102.0630 C.3   566  ARG566      0.0307
    104  CG        -9.7620   55.6480  102.3120 C.3   566  ARG566      0.0489
    105  CD       -10.4160   56.7900  101.4530 C.3   566  ARG566      0.2205
    106  NE       -11.7230   57.2240  101.9340 N.pl3 566  ARG566     -0.0865
    107  CZ       -12.8940   56.8590  101.4140 C.cat 566  ARG566      0.5346
    108  NH1      -12.9810   56.0510  100.3720 N.pl3 566  ARG566      0.1354
    109  NH2      -14.0120   57.3180  101.9460 N.pl3 566  ARG566      0.1354
    110  N        -10.4080   50.4930  105.1840 N.3   568  TYR568     -0.1227
    111  CA       -10.7160   50.4550  106.6020 C.3   568  TYR568      0.1736
    112  C        -10.9170   49.0230  107.0540 C.2   568  TYR568      0.2596
    113  O        -11.5020   48.2260  106.3450 O.2   568  TYR568     -0.2718
    114  CB       -11.9830   51.2660  106.9460 C.3   568  TYR568      0.0548
    115  CG       -12.1630   52.5920  106.2490 C.ar  568  TYR568     -0.0200
    116  CD1      -12.6280   52.6410  104.9500 C.ar  568  TYR568     -0.0009
    117  CD2      -11.9190   53.8010  106.9070 C.ar  568  TYR568     -0.0009
    118  CE1      -12.8090   53.8240  104.3190 C.ar  568  TYR568      0.0417
    119  CE2      -12.1090   55.0120  106.2670 C.ar  568  TYR568      0.0417
    120  CZ       -12.5500   55.0030  104.9700 C.ar  568  TYR568      0.1957
    121  OH       -12.7540   56.1600  104.2530 O.3   568  TYR568     -0.2866
    122  N        -10.4670   48.7370  108.2710 N.am  569  THR569     -0.1939
    123  CA       -10.5370   47.4070  108.8650 C.3   569  THR569      0.2028
    124  C        -11.0190   47.5190  110.2830 C.2   569  THR569      0.2642
    125  O        -10.3410   48.0830  111.1310 O.2   569  THR569     -0.2714
    126  CB        -9.1580   46.7730  108.8610 C.3   569  THR569      0.1808
    127  OG1       -8.4140   47.2670  107.7420 O.3   569  THR569     -0.2208
    128  CG2       -9.2560   45.2900  108.5940 C.3   569  THR569      0.0379
    129  N        -12.2170   47.0090  110.5230 N.am  570  LEU570     -0.1977
    130  CA       -12.7900   46.9410  111.8540 C.3   570  LEU570      0.1596
    131  C        -12.6930   45.4970  112.2770 C.2   570  LEU570      0.2287
    132  O        -13.1790   44.6240  111.5830 O.2   570  LEU570     -0.2864
    133  CB       -14.2530   47.3820  111.8320 C.3   570  LEU570      0.0297
    134  CG       -14.9230   47.8080  113.1430 C.3   570  LEU570      0.0022
    135  CD1      -16.0070   46.7850  113.5330 C.3   570  LEU570      0.0001
    136  CD2      -13.9300   48.0150  114.3050 C.3   570  LEU570      0.0001
@<TRIPOS>BOND
     1    43    44    1
     2    43    40    1
     3    41    40    1
     4    41    42    2
     5    44    46   ar
     6    44    45   ar
     7    40    39    1
     8    46    48   ar
     9    31    30    2
    10    45    47   ar
    11    48    47   ar
    12    30    32   am
    13    30    29    1
    14    29    26    1
    15    38    37    1
    16    26    27    1
    17    26    25    1
    18    28    27    2
    19    37    34    1
    20    27    33   am
    21    99   100    1
    22   108   107    1
    23    25    21   am
    24    33    34    1
    25   102   101    2
    26    34    35    1
    27   107   106    2
    28   107   109    1
    29   105   106    1
    30   105   104    1
    31   100   101    1
    32   100   103    1
    33    21    22    2
    34    21    20    1
    35    35    36    2
    36   103   104    1
    37    23    20    1
    38    23    24    1
    39    20    19    1
    40    18    17    2
    41    19    17   am
    42   121   120    1
    43   118   116   ar
    44   118   120   ar
    45    17    16    1
    46   116   115   ar
    47   120   119   ar
    48   110   111    1
    49    16    15    1
    50   115   117   ar
    51   115   114    1
    52   119   117   ar
    53   113   112    2
    54    15     3   am
    55   111   114    1
    56   111   112    1
    57    97    95    1
    58     7     9   ar
    59     7     6   ar
    60   112   122   am
    61     9    10   ar
    62    93    94    2
    63    93    92    1
    64   127   126    1
    65     3     2    1
    66     3     4    2
    67    95    92    1
    68    95    96    1
    69    92    91    1
    70     6     5    1
    71     6     8   ar
    72   122   123    1
    73     2     5    1
    74     2     1    1
    75    10    12   ar
    76    10     8   ar
    77   128   126    1
    78   126   123    1
    79   123   124    1
    80    89    90    1
    81    89    88    1
    82    12    14   ar
    83    96    98    1
    84     8    11   ar
    85    85    84    2
    86    91    84   am
    87    84    83    1
    88    87    88    1
    89    87    86    1
    90    63    64    1
    91   124   129   am
    92   124   125    2
    93    14    13   ar
    94    11    13   ar
    95   129   130    1
    96    86    83    1
    97    83    82    1
    98    66    65    2
    99    64    67    1
   100    64    65    1
   101   132   131    2
   102    67    68    1
   103   133   130    1
   104   133   134    1
   105   130   131    1
   106    82    80   am
   107    70    68    1
   108    68    69    1
   109   134   135    1
   110   134   136    1
   111    80    81    2
   112    80    79    1
   113    79    78    1
   114    71    72    1
   115    76    75    1
   116    74    73    2
   117    61    59   ar
   118    61    62   ar
   119    72    75    1
   120    72    73    1
   121    59    56   ar
   122    77    75    1
   123    62    60   ar
   124    51    52    2
   125    51    50    1
   126    56    54   ar
   127    56    58   ar
   128    50    53    1
   129    50    49    1
   130    53    54    1
   131    60    58   ar
   132    54    55   ar
   133    58    57   ar
   134    55    57   ar
