@<TRIPOS>MOLECULE
tmp/1ujwA03.pdb
 89 87 0 0 0
SMALL
GASTEIGER

@<TRIPOS>ATOM
      1  N         -3.8540   24.6340  118.6900 N.3   165  LEU165     -0.1245
      2  CA        -4.7170   24.5340  117.5310 C.3   165  LEU165      0.1561
      3  C         -5.0500   25.9200  117.0530 C.2   165  LEU165      0.2260
      4  O         -5.3750   26.8340  117.8700 O.2   165  LEU165     -0.2867
      5  CB        -6.0140   23.8480  117.8930 C.3   165  LEU165      0.0270
      6  CG        -5.9270   22.4940  118.6100 C.3   165  LEU165      0.0019
      7  CD1       -7.2010   22.2040  119.3620 C.3   165  LEU165      0.0001
      8  CD2       -5.6450   21.3620  117.6610 C.3   165  LEU165      0.0001
      9  N         -5.5680   25.5180  108.7250 N.3   184  LEU184     -0.1231
     10  CA        -5.7530   24.7160  109.9180 C.3   184  LEU184      0.1693
     11  C         -4.4010   24.3510  110.4490 C.2   184  LEU184      0.2592
     12  O         -3.4810   24.1800  109.6910 O.2   184  LEU184     -0.2718
     13  CB        -6.5380   23.4630  109.5850 C.3   184  LEU184      0.0284
     14  CG        -7.0040   22.5740  110.7480 C.3   184  LEU184      0.0019
     15  CD1       -8.2030   23.1840  111.4800 C.3   184  LEU184      0.0001
     16  CD2       -7.3780   21.1980  110.2020 C.3   184  LEU184      0.0001
     17  N         -4.2730   24.2150  111.7590 N.am  185  TYR185     -0.1962
     18  CA        -2.9620   24.0360  112.3810 C.3   185  TYR185      0.1771
     19  C         -3.0630   23.2680  113.6570 C.2   185  TYR185      0.2620
     20  O         -3.8820   23.5430  114.4770 O.2   185  TYR185     -0.2715
     21  CB        -2.3690   25.4080  112.7050 C.3   185  TYR185      0.0574
     22  CG        -1.0670   25.3040  113.4590 C.ar  185  TYR185     -0.0198
     23  CD1       -1.0140   24.7160  114.7320 C.ar  185  TYR185     -0.0009
     24  CD2        0.1140   25.7080  112.8770 C.ar  185  TYR185     -0.0009
     25  CE1        0.1720   24.5640  115.3990 C.ar  185  TYR185      0.0417
     26  CE2        1.3120   25.5530  113.5330 C.ar  185  TYR185      0.0417
     27  CZ         1.3440   24.9930  114.8030 C.ar  185  TYR185      0.1957
     28  OH         2.5440   24.8930  115.4900 O.3   185  TYR185     -0.2866
     29  N         -2.1610   22.3630  113.8890 N.am  186  GLY186     -0.1954
     30  CA        -2.2030   21.5980  115.1270 C.3   186  GLY186      0.1869
     31  C         -0.8790   21.0810  115.6380 C.2   186  GLY186      0.2309
     32  O         -0.1400   20.5160  114.8970 O.2   186  GLY186     -0.2863
     33  N          1.1980   19.4560  112.4300 N.3   202  GLY202     -0.1210
     34  CA         0.6300   19.4710  111.1080 C.3   202  GLY202      0.1956
     35  C         -0.0110   20.8350  110.9270 C.2   202  GLY202      0.2612
     36  O         -0.7110   21.3160  111.7940 O.2   202  GLY202     -0.2717
     37  N          0.2680   21.4980  109.8280 N.am  203  TYR203     -0.1962
     38  CA        -0.6680   22.4850  109.4040 C.3   203  TYR203      0.1771
     39  C         -0.8390   22.4480  107.9160 C.2   203  TYR203      0.2620
     40  O         -0.1010   21.7990  107.2130 O.2   203  TYR203     -0.2715
     41  CB        -0.2280   23.8420  109.8800 C.3   203  TYR203      0.0574
     42  CG         1.1490   24.2560  109.4220 C.ar  203  TYR203     -0.0198
     43  CD1        1.3080   25.0580  108.2920 C.ar  203  TYR203     -0.0009
     44  CD2        2.2830   23.8870  110.1200 C.ar  203  TYR203     -0.0009
     45  CE1        2.5180   25.4490  107.8900 C.ar  203  TYR203      0.0417
     46  CE2        3.5030   24.2900  109.7020 C.ar  203  TYR203      0.0417
     47  CZ         3.5970   25.0650  108.5930 C.ar  203  TYR203      0.1957
     48  OH         4.7920   25.4860  108.1410 O.3   203  TYR203     -0.2866
     49  N         -1.8470   23.1310  107.4350 N.am  204  GLY204     -0.1954
     50  CA        -2.0310   23.2740  106.0070 C.3   204  GLY204      0.1869
     51  C         -2.9270   24.4500  105.6860 C.2   204  GLY204      0.2309
     52  O         -3.7390   24.8990  106.5040 O.2   204  GLY204     -0.2863
     53  N         -5.3530   25.9600  102.1550 N.3   206  ASP206     -0.1239
     54  CA        -5.8750   25.8650  100.8080 C.3   206  ASP206      0.1674
     55  C         -6.1760   27.2800  100.4520 C.2   206  ASP206      0.2266
     56  O         -6.8830   27.9690  101.1880 O.2   206  ASP206     -0.2867
     57  CB        -7.1500   25.0480  100.7610 C.3   206  ASP206      0.1410
     58  CG        -6.8960   23.5700  100.9470 C.2   206  ASP206      0.3668
     59  OD1       -7.8340   22.7600  100.7190 O.co2 206  ASP206     -0.2456
     60  OD2       -5.7880   23.1180  101.3270 O.co2 206  ASP206     -0.2456
     61  N         -1.0810   23.5330  100.3570 N.3   229  SER229     -0.1202
     62  CA         0.1720   23.1850  100.9720 C.3   229  SER229      0.2020
     63  C         -0.0850   22.6100  102.3070 C.2   229  SER229      0.2618
     64  O         -1.0580   22.9480  102.9660 O.2   229  SER229     -0.2717
     65  CB         1.0750   24.3940  101.1160 C.3   229  SER229      0.2103
     66  OG         2.4210   23.9390  101.1480 O.3   229  SER229     -0.2182
     67  N          0.7980   21.7330  102.7250 N.am  230  GLN230     -0.1979
     68  CA         0.7350   21.1830  104.0650 C.3   230  GLN230      0.1601
     69  C          2.1470   20.8560  104.5230 C.2   230  GLN230      0.2287
     70  O          3.0510   20.7380  103.7010 O.2   230  GLN230     -0.2864
     71  CB        -0.1820   19.9710  104.1070 C.3   230  GLN230      0.0394
     72  CG         0.4410   18.6610  103.6430 C.3   230  GLN230      0.0908
     73  CD        -0.5890   17.5470  103.5720 C.2   230  GLN230      0.2608
     74  OE1       -1.1960   17.2260  104.5680 O.2   230  GLN230     -0.2717
     75  NE2       -0.7850   16.9730  102.4040 N.am  230  GLN230     -0.0878
     76  N          4.4070   18.7740  107.8020 N.3   232  TRP232     -0.1241
     77  CA         4.4740   18.0670  109.0520 C.3   232  TRP232      0.1605
     78  C          5.8660   18.1840  109.6140 C.2   232  TRP232      0.2264
     79  O          6.8020   18.4790  108.9000 O.2   232  TRP232     -0.2867
     80  CB         4.0030   16.6430  108.8580 C.3   232  TRP232      0.0550
     81  CG         2.5440   16.5870  108.3280 C.ar  232  TRP232      0.0003
     82  CD1        2.1140   16.7610  107.0250 C.ar  232  TRP232      0.0946
     83  CD2        1.3510   16.3380  109.1000 C.ar  232  TRP232      0.0152
     84  NE1        0.7460   16.6360  106.9530 N.ar  232  TRP232     -0.2442
     85  CE2        0.2550   16.3760  108.2120 C.ar  232  TRP232      0.0810
     86  CE3        1.0950   16.0890  110.4640 C.ar  232  TRP232      0.0012
     87  CZ2       -1.0640   16.1810  108.6510 C.ar  232  TRP232      0.0191
     88  CZ3       -0.2130   15.8830  110.8890 C.ar  232  TRP232      0.0001
     89  CH2       -1.2670   15.9380  109.9950 C.ar  232  TRP232      0.0015
@<TRIPOS>BOND
     1    61    62    1
     2    55    54    1
     3    55    56    2
     4    59    58   ar
     5    57    54    1
     6    57    58    1
     7    54    53    1
     8    58    60   ar
     9    62    65    1
    10    62    63    1
    11    65    66    1
    12    63    67   am
    13    63    64    2
    14    75    73   am
    15    67    68    1
    16    73    72    1
    17    73    74    2
    18    72    71    1
    19    70    69    2
    20    68    71    1
    21    68    69    1
    22    51    50    1
    23    51    52    2
    24    50    49    1
    25    84    82   ar
    26    84    85   ar
    27    82    81   ar
    28    40    39    2
    29    49    39   am
    30    76    77    1
    31    45    43   ar
    32    45    47   ar
    33    39    38    1
    34    48    47    1
    35    85    87   ar
    36    85    83   ar
    37    43    42   ar
    38    81    80    1
    39    81    83   ar
    40    47    46   ar
    41    87    89   ar
    42     9    10    1
    43    80    77    1
    44    79    78    2
    45    77    78    1
    46    83    86   ar
    47    38    37    1
    48    38    41    1
    49    42    41    1
    50    42    44   ar
    51    13    10    1
    52    13    14    1
    53    12    11    2
    54    46    44   ar
    55    37    35   am
    56    10    11    1
    57    89    88   ar
    58    16    14    1
    59    11    17   am
    60    86    88   ar
    61    14    15    1
    62    35    34    1
    63    35    36    2
    64    34    33    1
    65    17    18    1
    66    18    21    1
    67    18    19    1
    68    21    22    1
    69    24    22   ar
    70    24    26   ar
    71    22    23   ar
    72    26    27   ar
    73    19    29   am
    74    19    20    2
    75    29    30    1
    76    23    25   ar
    77    27    25   ar
    78    27    28    1
    79    32    31    2
    80    30    31    1
    81     3     2    1
    82     3     4    2
    83     2     5    1
    84     2     1    1
    85     8     6    1
    86     5     6    1
    87     6     7    1
