@<TRIPOS>MOLECULE
tmp/1ujwA05.pdb
 86 81 0 0 0
SMALL
GASTEIGER

@<TRIPOS>ATOM
      1  N         20.0580   18.2120  112.4370 N.3   282  TRP282     -0.1241
      2  CA        20.6250   17.8410  113.7350 C.3   282  TRP282      0.1605
      3  C         21.5200   18.9480  114.1350 C.2   282  TRP282      0.2264
      4  O         22.5370   19.1050  113.5310 O.2   282  TRP282     -0.2867
      5  CB        21.4580   16.5620  113.6770 C.3   282  TRP282      0.0550
      6  CG        21.8420   16.0720  115.0330 C.ar  282  TRP282      0.0003
      7  CD1       21.3500   16.4990  116.2150 C.ar  282  TRP282      0.0946
      8  CD2       22.7560   15.0150  115.3440 C.ar  282  TRP282      0.0152
      9  NE1       21.9050   15.7930  117.2550 N.ar  282  TRP282     -0.2442
     10  CE2       22.7640   14.8660  116.7470 C.ar  282  TRP282      0.0810
     11  CE3       23.5610   14.1690  114.5770 C.ar  282  TRP282      0.0012
     12  CZ2       23.5570   13.9340  117.4000 C.ar  282  TRP282      0.0191
     13  CZ3       24.3550   13.2490  115.2100 C.ar  282  TRP282      0.0001
     14  CH2       24.3540   13.1310  116.6090 C.ar  282  TRP282      0.0015
     15  N         23.5830   21.0530  117.2850 N.3   284  ASN284     -0.1240
     16  CA        24.1740   20.8110  118.5690 C.3   284  ASN284      0.1653
     17  C         24.9820   21.9640  118.9510 C.2   284  ASN284      0.2266
     18  O         25.5320   22.6600  118.1200 O.2   284  ASN284     -0.2867
     19  CB        25.0930   19.6330  118.5530 C.3   284  ASN284      0.1155
     20  CG        24.4310   18.4150  118.0690 C.2   284  ASN284      0.2627
     21  OD1       24.5510   18.0900  116.8890 O.2   284  ASN284     -0.2716
     22  ND2       23.6790   17.7300  118.9520 N.am  284  ASN284     -0.0877
     23  N         27.6710   22.8460  116.1060 N.3   295  ALA295     -0.1231
     24  CA        27.9500   21.9800  114.9530 C.3   295  ALA295      0.1694
     25  C         26.7000   21.2250  114.5000 C.2   295  ALA295      0.2593
     26  O         26.1720   20.4030  115.2240 O.2   295  ALA295     -0.2718
     27  CB        29.0300   20.9700  115.3070 C.3   295  ALA295      0.0304
     28  N         26.2300   21.4840  113.2950 N.am  296  GLY296     -0.1942
     29  CA        25.0310   20.8280  112.8310 C.3   296  GLY296      0.2014
     30  C         25.1270   20.2120  111.4680 C.2   296  GLY296      0.2638
     31  O         26.1090   20.3300  110.7530 O.2   296  GLY296     -0.2714
     32  N         24.0540   19.5330  111.1130 N.am  297  VAL297     -0.1977
     33  CA        23.8740   18.9460  109.7890 C.3   297  VAL297      0.1596
     34  C         22.4830   19.2530  109.3400 C.2   297  VAL297      0.2287
     35  O         21.5340   19.0650  110.1040 O.2   297  VAL297     -0.2864
     36  CB        23.9240   17.4280  109.8370 C.3   297  VAL297      0.0276
     37  CG1       24.4020   16.8880  108.5480 C.3   297  VAL297      0.0022
     38  CG2       24.8230   17.0040  110.8840 C.3   297  VAL297      0.0022
     39  N         23.1650   18.1250  101.2570 N.3   320  THR320     -0.1218
     40  CA        23.6140   17.8650  102.6070 C.3   320  THR320      0.1862
     41  C         24.5860   18.9280  103.0220 C.2   320  THR320      0.2287
     42  O         25.4980   19.2520  102.3210 O.2   320  THR320     -0.2866
     43  CB        24.2870   16.5020  102.7170 C.3   320  THR320      0.1770
     44  OG1       23.4560   15.4640  102.1550 O.3   320  THR320     -0.2211
     45  CG2       24.4220   16.1130  104.1700 C.3   320  THR320      0.0375
     46  N         26.9410   20.5550  106.4060 N.3   322  ILE322     -0.1245
     47  CA        27.4600   20.4510  107.7430 C.3   322  ILE322      0.1561
     48  C         28.0970   21.7980  108.0520 C.2   322  ILE322      0.2260
     49  O         28.7830   22.3500  107.1980 O.2   322  ILE322     -0.2867
     50  CB        28.4750   19.3110  107.8640 C.3   322  ILE322      0.0252
     51  CG1       28.9350   19.2160  109.3360 C.3   322  ILE322      0.0019
     52  CG2       29.6970   19.5410  106.9730 C.3   322  ILE322      0.0019
     53  CD1       29.6990   17.9770  109.6930 C.3   322  ILE322      0.0001
     54  N         30.0640   23.6370  104.7800 N.3   341  SER341     -0.1202
     55  CA        30.2170   23.0150  103.4540 C.3   341  SER341      0.2020
     56  C         28.9190   22.3760  103.0370 C.2   341  SER341      0.2619
     57  O         28.3470   21.5490  103.7710 O.2   341  SER341     -0.2717
     58  CB        31.2880   21.9310  103.4220 C.3   341  SER341      0.2103
     59  OG        31.5480   21.4880  102.0750 O.3   341  SER341     -0.2182
     60  N         28.4490   22.7790  101.8580 N.am  342  ASP342     -0.1959
     61  CA        27.2710   22.1530  101.2310 C.3   342  ASP342      0.1840
     62  C         27.6980   21.2100  100.1240 C.2   342  ASP342      0.2622
     63  O         28.7300   21.3930   99.4930 O.2   342  ASP342     -0.2715
     64  CB        26.2830   23.1900  100.6880 C.3   342  ASP342      0.1450
     65  CG        25.7490   24.1250  101.7690 C.2   342  ASP342      0.3671
     66  OD1       26.5220   25.0310  102.1740 O.co2 342  ASP342     -0.2456
     67  OD2       24.6010   24.0420  102.2670 O.co2 342  ASP342     -0.2456
     68  N         26.8910   20.1900   99.9290 N.am  343  ASP343     -0.1971
     69  CA        27.0820   19.2130   98.8950 C.3   343  ASP343      0.1709
     70  C         25.7690   19.1700   98.1800 C.2   343  ASP343      0.2293
     71  O         24.7620   18.7710   98.7480 O.2   343  ASP343     -0.2864
     72  CB        27.3390   17.8660   99.5300 C.3   343  ASP343      0.1436
     73  CG        28.2680   17.0050   98.7410 C.2   343  ASP343      0.3671
     74  OD1       28.2770   17.0690   97.4990 O.co2 343  ASP343     -0.2456
     75  OD2       29.0350   16.2050   99.3000 O.co2 343  ASP343     -0.2456
     76  N         30.2280   20.6360   95.7960 N.3   349  ARG349     -0.1245
     77  CA        30.4440   21.3770   97.0380 C.3   349  ARG349      0.1563
     78  C         30.7470   22.8660   96.9510 C.2   349  ARG349      0.2260
     79  O         31.3610   23.3360   95.9900 O.2   349  ARG349     -0.2867
     80  CB        31.5990   20.7560   97.8050 C.3   349  ARG349      0.0307
     81  CG        31.4620   19.2940   98.1590 C.3   349  ARG349      0.0489
     82  CD        32.6780   18.7870   98.8980 C.3   349  ARG349      0.2205
     83  NE        33.1680   19.7750   99.8720 N.pl3 349  ARG349     -0.0865
     84  CZ        34.4020   20.3270   99.9040 C.cat 349  ARG349      0.5346
     85  NH1       35.3580   20.0220   99.0130 N.pl3 349  ARG349      0.1354
     86  NH2       34.6780   21.2160  100.8670 N.pl3 349  ARG349      0.1354
@<TRIPOS>BOND
     1    76    77    1
     2    79    78    2
     3    78    77    1
     4    77    80    1
     5    74    73   ar
     6    80    81    1
     7    81    82    1
     8    70    71    2
     9    70    69    1
    10    73    75   ar
    11    73    72    1
    12    69    72    1
    13    69    68    1
    14    82    83    1
    15    85    84    1
    16    63    62    2
    17    83    84    2
    18    84    86    1
    19    68    62   am
    20    62    61    1
    21    64    61    1
    22    64    65    1
    23    61    60    1
    24    39    40    1
    25    65    66   ar
    26    65    67   ar
    27    60    56   am
    28    59    58    1
    29    44    43    1
    30    42    41    2
    31    40    43    1
    32    40    41    1
    33    43    45    1
    34    56    55    1
    35    56    57    2
    36    58    55    1
    37    55    54    1
    38    46    47    1
    39    52    50    1
    40    49    48    2
    41    47    50    1
    42    47    48    1
    43    50    51    1
    44    37    36    1
    45    51    53    1
    46    34    33    1
    47    34    35    2
    48    33    36    1
    49    33    32    1
    50    36    38    1
    51    31    30    2
    52    32    30   am
    53    30    29    1
    54     1     2    1
    55    29    28    1
    56    28    25   am
    57     4     3    2
    58     5     2    1
    59     5     6    1
    60     2     3    1
    61    25    24    1
    62    25    26    2
    63    11    13   ar
    64    11     8   ar
    65    24    27    1
    66    24    23    1
    67     6     8   ar
    68     6     7   ar
    69    13    14   ar
    70     8    10   ar
    71     7     9   ar
    72    14    12   ar
    73    10     9   ar
    74    10    12   ar
    75    21    20    2
    76    15    16    1
    77    20    19    1
    78    20    22   am
    79    18    17    2
    80    19    16    1
    81    16    17    1
