@<TRIPOS>MOLECULE
tmp/1ujwA02.pdb
 118 115 0 0 0
SMALL
GASTEIGER

@<TRIPOS>ATOM
      1  N         -1.1490   21.1540  123.9880 N.3   163  VAL163     -0.1245
      2  CA        -1.7460   21.1460  122.6790 C.3   163  VAL163      0.1561
      3  C         -2.0280   22.5430  122.1540 C.2   163  VAL163      0.2260
      4  O         -2.4160   23.4320  122.8580 O.2   163  VAL163     -0.2867
      5  CB        -3.0010   20.3500  122.6830 C.3   163  VAL163      0.0252
      6  CG1       -4.1060   21.0420  123.5240 C.3   163  VAL163      0.0019
      7  CG2       -3.4380   20.0990  121.3080 C.3   163  VAL163      0.0019
      8  N         -3.8540   24.6340  118.6900 N.3   165  LEU165     -0.1245
      9  CA        -4.7170   24.5340  117.5310 C.3   165  LEU165      0.1561
     10  C         -5.0500   25.9200  117.0530 C.2   165  LEU165      0.2260
     11  O         -5.3750   26.8340  117.8700 O.2   165  LEU165     -0.2867
     12  CB        -6.0140   23.8480  117.8930 C.3   165  LEU165      0.0270
     13  CG        -5.9270   22.4940  118.6100 C.3   165  LEU165      0.0019
     14  CD1       -7.2010   22.2040  119.3620 C.3   165  LEU165      0.0001
     15  CD2       -5.6450   21.3620  117.6610 C.3   165  LEU165      0.0001
     16  N         -2.1610   22.3630  113.8890 N.3   186  GLY186     -0.1210
     17  CA        -2.2030   21.5980  115.1270 C.3   186  GLY186      0.1956
     18  C         -0.8790   21.0810  115.6380 C.2   186  GLY186      0.2612
     19  O         -0.1400   20.5160  114.8970 O.2   186  GLY186     -0.2717
     20  N         -0.5840   21.2720  116.9090 N.am  187  ALA187     -0.1965
     21  CA         0.7130   20.8890  117.4440 C.3   187  ALA187      0.1728
     22  C          0.6010   20.2470  118.8200 C.2   187  ALA187      0.2616
     23  O         -0.2540   20.5960  119.6380 O.2   187  ALA187     -0.2715
     24  CB         1.6190   22.1140  117.5000 C.3   187  ALA187      0.0334
     25  N          1.4950   19.3190  119.0840 N.am  188  LEU188     -0.1977
     26  CA         1.4840   18.5650  120.3260 C.3   188  LEU188      0.1596
     27  C          2.9270   18.5090  120.8190 C.2   188  LEU188      0.2287
     28  O          3.8350   18.1890  120.0800 O.2   188  LEU188     -0.2864
     29  CB         0.9320   17.1920  120.0340 C.3   188  LEU188      0.0297
     30  CG         0.2010   16.3630  121.0670 C.3   188  LEU188      0.0022
     31  CD1       -0.9460   17.1220  121.8270 C.3   188  LEU188      0.0001
     32  CD2       -0.3240   15.0810  120.3060 C.3   188  LEU188      0.0001
     33  N          5.1140   17.0820  117.9030 N.3   200  VAL200     -0.1231
     34  CA         4.6160   16.8550  116.5620 C.3   200  VAL200      0.1692
     35  C          3.6930   17.9540  116.0860 C.2   200  VAL200      0.2592
     36  O          3.0240   18.5540  116.8840 O.2   200  VAL200     -0.2718
     37  CB         3.9140   15.5320  116.4140 C.3   200  VAL200      0.0266
     38  CG1        4.3830   14.9320  115.1330 C.3   200  VAL200      0.0020
     39  CG2        4.2530   14.5820  117.4720 C.3   200  VAL200      0.0020
     40  N          3.6790   18.2070  114.7800 N.am  201  ARG201     -0.1966
     41  CA         2.7560   19.1620  114.1600 C.3   201  ARG201      0.1729
     42  C          2.3420   18.8940  112.7340 C.2   201  ARG201      0.2616
     43  O          3.0240   18.2720  111.9500 O.2   201  ARG201     -0.2715
     44  CB         3.3540   20.5350  114.1000 C.3   201  ARG201      0.0348
     45  CG         4.1980   20.8410  115.2690 C.3   201  ARG201      0.0492
     46  CD         4.6480   22.2430  115.2880 C.3   201  ARG201      0.2205
     47  NE         5.6310   22.4500  114.2600 N.pl3 201  ARG201     -0.0865
     48  CZ         5.9840   23.6290  113.8190 C.cat 201  ARG201      0.5346
     49  NH1        5.4040   24.7220  114.3490 N.pl3 201  ARG201      0.1354
     50  NH2        6.9130   23.7180  112.8460 N.pl3 201  ARG201      0.1354
     51  N          1.1980   19.4560  112.4300 N.am  202  GLY202     -0.1955
     52  CA         0.6300   19.4710  111.1080 C.3   202  GLY202      0.1869
     53  C         -0.0110   20.8350  110.9270 C.2   202  GLY202      0.2309
     54  O         -0.7110   21.3160  111.7940 O.2   202  GLY202     -0.2863
     55  N          4.4070   18.7740  107.8020 N.3   232  TRP232     -0.1227
     56  CA         4.4740   18.0670  109.0520 C.3   232  TRP232      0.1737
     57  C          5.8660   18.1840  109.6140 C.2   232  TRP232      0.2595
     58  O          6.8020   18.4790  108.9000 O.2   232  TRP232     -0.2718
     59  CB         4.0030   16.6430  108.8580 C.3   232  TRP232      0.0564
     60  CG         2.5440   16.5870  108.3280 C.ar  232  TRP232      0.0003
     61  CD1        2.1140   16.7610  107.0250 C.ar  232  TRP232      0.0946
     62  CD2        1.3510   16.3380  109.1000 C.ar  232  TRP232      0.0152
     63  NE1        0.7460   16.6360  106.9530 N.ar  232  TRP232     -0.2442
     64  CE2        0.2550   16.3760  108.2120 C.ar  232  TRP232      0.0810
     65  CE3        1.0950   16.0890  110.4640 C.ar  232  TRP232      0.0012
     66  CZ2       -1.0640   16.1810  108.6510 C.ar  232  TRP232      0.0191
     67  CZ3       -0.2130   15.8830  110.8890 C.ar  232  TRP232      0.0001
     68  CH2       -1.2670   15.9380  109.9950 C.ar  232  TRP232      0.0015
     69  N          5.9850   18.1100  110.9290 N.am  233  ASP233     -0.1960
     70  CA         7.3070   17.8920  111.5070 C.3   233  ASP233      0.1840
     71  C          7.2160   17.3140  112.8680 C.2   233  ASP233      0.2621
     72  O          6.1620   17.2670  113.4450 O.2   233  ASP233     -0.2715
     73  CB         8.1380   19.1560  111.5230 C.3   233  ASP233      0.1450
     74  CG         7.3230   20.3430  111.7900 C.2   233  ASP233      0.3671
     75  OD1        7.1900   20.6530  112.9800 O.co2 233  ASP233     -0.2456
     76  OD2        6.7470   21.0040  110.8820 O.co2 233  ASP233     -0.2456
     77  N          8.3560   16.8210  113.3110 N.am  234  ALA234     -0.1977
     78  CA         8.5210   16.1000  114.5640 C.3   234  ALA234      0.1597
     79  C          9.9360   16.3740  115.0210 C.2   234  ALA234      0.2287
     80  O         10.8450   16.5250  114.2030 O.2   234  ALA234     -0.2864
     81  CB         8.3240   14.6180  114.3530 C.3   234  ALA234      0.0319
     82  N         12.9150   16.5160  111.8780 N.3   249  THR249     -0.1203
     83  CA        12.3990   16.1810  110.5470 C.3   249  THR249      0.1994
     84  C         11.1130   16.8930  110.1340 C.2   249  THR249      0.2619
     85  O         10.2080   17.0730  110.9240 O.2   249  THR249     -0.2717
     86  CB        12.1470   14.7090  110.4730 C.3   249  THR249      0.1784
     87  OG1       11.4420   14.3080  111.6430 O.3   249  THR249     -0.2211
     88  CG2       13.4150   13.9840  110.6070 C.3   249  THR249      0.0376
     89  N         11.0260   17.2360  108.8570 N.am  250  SER250     -0.1937
     90  CA         9.8760   17.9480  108.3140 C.3   250  SER250      0.2055
     91  C          9.5380   17.4540  106.9160 C.2   250  SER250      0.2643
     92  O         10.3910   17.0060  106.2040 O.2   250  SER250     -0.2714
     93  CB        10.1930   19.4260  108.2850 C.3   250  SER250      0.2130
     94  OG        11.0270   19.7180  109.3950 O.3   250  SER250     -0.2179
     95  N          8.2810   17.5650  106.5470 N.am  251  TYR251     -0.1973
     96  CA         7.7970   17.1660  105.2610 C.3   251  TYR251      0.1639
     97  C          6.7830   18.1730  104.8610 C.2   251  TYR251      0.2290
     98  O          5.9100   18.5570  105.6180 O.2   251  TYR251     -0.2864
     99  CB         7.1150   15.8230  105.3860 C.3   251  TYR251      0.0560
    100  CG         6.2930   15.3580  104.2140 C.ar  251  TYR251     -0.0198
    101  CD1        6.8940   14.9000  103.0510 C.ar  251  TYR251     -0.0009
    102  CD2        4.9150   15.3180  104.2910 C.ar  251  TYR251     -0.0009
    103  CE1        6.1240   14.4330  101.9770 C.ar  251  TYR251      0.0417
    104  CE2        4.1440   14.8400  103.2440 C.ar  251  TYR251      0.0417
    105  CZ         4.7400   14.4060  102.0950 C.ar  251  TYR251      0.1957
    106  OH         3.9360   13.9520  101.0660 O.3   251  TYR251     -0.2866
    107  N         11.6980   17.4480  101.7930 N.3   278  TYR278     -0.1241
    108  CA        11.9880   16.7000  103.0340 C.3   278  TYR278      0.1605
    109  C         13.2330   17.2720  103.6780 C.2   278  TYR278      0.2264
    110  O         14.1660   17.5980  103.0170 O.2   278  TYR278     -0.2867
    111  CB        12.2260   15.2280  102.7990 C.3   278  TYR278      0.0534
    112  CG        11.1760   14.5160  101.9870 C.ar  278  TYR278     -0.0201
    113  CD1       11.0300   14.7520  100.6030 C.ar  278  TYR278     -0.0009
    114  CD2       10.3540   13.5440  102.5840 C.ar  278  TYR278     -0.0009
    115  CE1       10.0690   14.0730   99.8680 C.ar  278  TYR278      0.0417
    116  CE2        9.3830   12.8530  101.8340 C.ar  278  TYR278      0.0417
    117  CZ         9.2540   13.1310  100.4980 C.ar  278  TYR278      0.1957
    118  OH         8.2910   12.4650   99.8070 O.3   278  TYR278     -0.2866
@<TRIPOS>BOND
     1   118   117    1
     2   115   117   ar
     3   115   113   ar
     4   117   116   ar
     5   113   112   ar
     6   106   105    1
     7   107   108    1
     8   116   114   ar
     9   103   105   ar
    10   103   101   ar
    11   112   114   ar
    12   112   111    1
    13   105   104   ar
    14   111   108    1
    15   110   109    2
    16   108   109    1
    17   101   100   ar
    18   104   102   ar
    19   100   102   ar
    20   100    99    1
    21    97    96    1
    22    97    98    2
    23    96    99    1
    24    96    95    1
    25    92    91    2
    26    95    91   am
    27    91    90    1
    28    63    61   ar
    29    63    64   ar
    30    61    60   ar
    31    55    56    1
    32    64    66   ar
    33    64    62   ar
    34    93    90    1
    35    93    94    1
    36    90    89    1
    37    60    59    1
    38    60    62   ar
    39    66    68   ar
    40    89    84   am
    41    59    56    1
    42    58    57    2
    43    56    57    1
    44    62    65   ar
    45    57    69   am
    46    68    67   ar
    47    84    83    1
    48    84    85    2
    49    65    67   ar
    50    86    83    1
    51    86    88    1
    52    86    87    1
    53    83    82    1
    54    76    74   ar
    55    53    52    1
    56    53    54    2
    57    69    70    1
    58    52    51    1
    59    70    73    1
    60    70    71    1
    61    73    74    1
    62    74    75   ar
    63    43    42    2
    64    51    42   am
    65    42    41    1
    66    50    48    1
    67    71    77   am
    68    71    72    2
    69    77    78    1
    70    48    47    2
    71    48    49    1
    72    16    17    1
    73    44    41    1
    74    44    45    1
    75    41    40    1
    76    80    79    2
    77    47    46    1
    78    81    78    1
    79    78    79    1
    80    40    35   am
    81    19    18    2
    82    17    18    1
    83    38    37    1
    84    45    46    1
    85    18    20   am
    86    35    34    1
    87    35    36    2
    88    37    34    1
    89    37    39    1
    90    34    33    1
    91    20    21    1
    92    10     9    1
    93    10    11    2
    94    21    24    1
    95    21    22    1
    96     9    12    1
    97     9     8    1
    98    15    13    1
    99    12    13    1
   100    13    14    1
   101    22    25   am
   102    22    23    2
   103    25    26    1
   104    29    26    1
   105    29    30    1
   106    28    27    2
   107    32    30    1
   108    26    27    1
   109    30    31    1
   110     7     5    1
   111     3     2    1
   112     3     4    2
   113     2     5    1
   114     2     1    1
   115     5     6    1
