@<TRIPOS>MOLECULE
tmp/1ujwA06.pdb
 97 93 0 0 0
SMALL
GASTEIGER

@<TRIPOS>ATOM
      1  N         31.1190   26.9930  125.8510 N.3   288  VAL288     -0.1231
      2  CA        32.5470   26.9560  126.0500 C.3   288  VAL288      0.1692
      3  C         33.0100   28.3230  126.5050 C.2   288  VAL288      0.2592
      4  O         32.8300   29.3010  125.8040 O.2   288  VAL288     -0.2718
      5  CB        33.2500   26.5740  124.7600 C.3   288  VAL288      0.0266
      6  CG1       34.7610   26.7900  124.8850 C.3   288  VAL288      0.0020
      7  CG2       32.9280   25.1210  124.4080 C.3   288  VAL288      0.0020
      8  N         33.6210   28.3890  127.6840 N.am  289  GLY289     -0.1957
      9  CA        34.0140   29.6570  128.2620 C.3   289  GLY289      0.1869
     10  C         32.8290   30.6020  128.2600 C.2   289  GLY289      0.2309
     11  O         31.7100   30.2190  128.5920 O.2   289  GLY289     -0.2863
     12  N         30.0210   29.8130  123.1200 N.3   292  SER292     -0.1202
     13  CA        29.6500   28.4560  122.7490 C.3   292  SER292      0.2020
     14  C         30.3530   28.0140  121.4880 C.2   292  SER292      0.2618
     15  O         31.0160   28.8110  120.8150 O.2   292  SER292     -0.2717
     16  CB        28.1400   28.3920  122.5330 C.3   292  SER292      0.2103
     17  OG        27.6890   29.5210  121.7760 O.3   292  SER292     -0.2182
     18  N         30.2180   26.7250  121.1930 N.am  293  ILE293     -0.1979
     19  CA        30.5790   26.1870  119.8900 C.3   293  ILE293      0.1595
     20  C         29.4460   25.3160  119.4470 C.2   293  ILE293      0.2287
     21  O         29.0220   24.4460  120.1800 O.2   293  ILE293     -0.2864
     22  CB        31.8980   25.3380  119.9170 C.3   293  ILE293      0.0276
     23  CG1       33.0250   26.0840  120.6440 C.3   293  ILE293      0.0022
     24  CG2       32.3220   25.0400  118.5320 C.3   293  ILE293      0.0022
     25  CD1       34.3310   25.4120  120.6200 C.3   293  ILE293      0.0001
     26  N         29.6040   24.7770  111.4030 N.3   324  LEU324     -0.1231
     27  CA        30.2200   25.0330  112.6890 C.3   324  LEU324      0.1693
     28  C         29.9570   26.4610  113.0840 C.2   324  LEU324      0.2593
     29  O         30.0120   27.3650  112.2520 O.2   324  LEU324     -0.2718
     30  CB        31.7250   24.9520  112.5550 C.3   324  LEU324      0.0284
     31  CG        32.5670   23.9090  113.2560 C.3   324  LEU324      0.0019
     32  CD1       32.0170   22.5320  113.0110 C.3   324  LEU324      0.0001
     33  CD2       33.9550   24.0600  112.6750 C.3   324  LEU324      0.0001
     34  N         29.7540   26.6760  114.3720 N.am  325  THR325     -0.1939
     35  CA        29.4570   27.9790  114.9030 C.3   325  THR325      0.2028
     36  C         30.4270   28.2200  116.0070 C.2   325  THR325      0.2643
     37  O         30.8840   27.2670  116.6310 O.2   325  THR325     -0.2714
     38  CB        28.0080   27.9700  115.4170 C.3   325  THR325      0.1808
     39  OG1       27.2230   28.8900  114.6310 O.3   325  THR325     -0.2208
     40  CG2       27.8910   28.5140  116.8290 C.3   325  THR325      0.0379
     41  N         30.7270   29.4870  116.2560 N.am  326  GLY326     -0.1939
     42  CA        31.6520   29.8630  117.3080 C.3   326  GLY326      0.2014
     43  C         31.2730   31.1500  118.0260 C.2   326  GLY326      0.2639
     44  O         30.8090   32.1010  117.4200 O.2   326  GLY326     -0.2714
     45  N         31.4740   31.1970  119.3310 N.am  327  LEU327     -0.1963
     46  CA        31.2190   32.4220  120.0450 C.3   327  LEU327      0.1728
     47  C         32.1000   32.5210  121.2390 C.2   327  LEU327      0.2616
     48  O         32.2610   31.5670  121.9550 O.2   327  LEU327     -0.2715
     49  CB        29.7680   32.4960  120.4860 C.3   327  LEU327      0.0311
     50  CG        29.0650   33.8660  120.4480 C.3   327  LEU327      0.0022
     51  CD1       28.2860   34.0240  121.7060 C.3   327  LEU327      0.0001
     52  CD2       29.9740   35.0800  120.2920 C.3   327  LEU327      0.0001
     53  N         32.6870   33.6800  121.4460 N.am  328  GLN328     -0.1977
     54  CA        33.5060   33.8940  122.6090 C.3   328  GLN328      0.1601
     55  C         33.5180   35.3930  122.9000 C.2   328  GLN328      0.2287
     56  O         33.9000   36.1880  122.0460 O.2   328  GLN328     -0.2864
     57  CB        34.9090   33.3140  122.3490 C.3   328  GLN328      0.0394
     58  CG        35.6870   32.7840  123.5750 C.3   328  GLN328      0.0908
     59  CD        34.9350   31.7590  124.4340 C.2   328  GLN328      0.2608
     60  OE1       34.9960   31.8230  125.6600 O.2   328  GLN328     -0.2717
     61  NE2       34.2480   30.8190  123.7990 N.am  328  GLN328     -0.0878
     62  N         33.4260   37.9690  119.5750 N.3   335  PHE335     -0.1227
     63  CA        33.8090   37.2360  118.3560 C.3   335  PHE335      0.1736
     64  C         32.7990   36.1170  117.9340 C.2   335  PHE335      0.2595
     65  O         32.7870   35.0810  118.6200 O.2   335  PHE335     -0.2718
     66  CB        35.1610   36.5420  118.6180 C.3   335  PHE335      0.0547
     67  CG        36.3150   37.4850  118.9370 C.ar  335  PHE335     -0.0202
     68  CD1       36.9210   37.4780  120.2040 C.ar  335  PHE335     -0.0042
     69  CD2       36.8270   38.3470  117.9680 C.ar  335  PHE335     -0.0042
     70  CE1       38.0100   38.3500  120.5080 C.ar  335  PHE335     -0.0003
     71  CE2       37.8960   39.2080  118.2690 C.ar  335  PHE335     -0.0003
     72  CZ        38.4820   39.2040  119.5390 C.ar  335  PHE335     -0.0000
     73  N         31.9490   36.3050  116.8860 N.am  336  GLU336     -0.1965
     74  CA        31.2190   35.1500  116.2000 C.3   336  GLU336      0.1733
     75  C         31.9910   34.7350  114.9620 C.2   336  GLU336      0.2617
     76  O         32.6730   35.5350  114.3380 O.2   336  GLU336     -0.2715
     77  CB        29.6850   35.3480  115.7830 C.3   336  GLU336      0.0429
     78  CG        29.2390   34.5590  114.4520 C.3   336  GLU336      0.1163
     79  CD        27.7210   34.0860  114.2290 C.2   336  GLU336      0.3649
     80  OE1       27.4200   32.8480  114.3110 O.co2 336  GLU336     -0.2457
     81  OE2       26.8160   34.9040  113.8710 O.co2 336  GLU336     -0.2457
     82  N         31.8780   33.4580  114.6330 N.am  337  GLY337     -0.1940
     83  CA        32.1180   32.9680  113.2880 C.3   337  GLY337      0.2014
     84  C         31.2700   31.7480  112.9410 C.2   337  GLY337      0.2638
     85  O         30.5620   31.1770  113.7810 O.2   337  GLY337     -0.2714
     86  N         31.3470   31.3480  111.6840 N.am  338  ALA338     -0.1977
     87  CA        30.6600   30.1690  111.2110 C.3   338  ALA338      0.1597
     88  C         31.3340   29.6530  109.9820 C.2   338  ALA338      0.2287
     89  O         31.9810   30.4170  109.2520 O.2   338  ALA338     -0.2864
     90  CB        29.2890   30.5040  110.8810 C.3   338  ALA338      0.0319
     91  N         32.7280   35.8980  109.8350 N.3   355  THR355     -0.1218
     92  CA        33.2840   36.2330  111.1310 C.3   355  THR355      0.1862
     93  C         32.9270   37.6720  111.4200 C.2   355  THR355      0.2287
     94  O         32.6850   38.4530  110.5150 O.2   355  THR355     -0.2866
     95  CB        34.8430   36.0920  111.1540 C.3   355  THR355      0.1770
     96  OG1       35.4020   36.4980  109.8910 O.3   355  THR355     -0.2211
     97  CG2       35.3010   34.6250  111.3450 C.3   355  THR355      0.0375
@<TRIPOS>BOND
     1    89    88    2
     2    91    92    1
     3    96    95    1
     4    88    87    1
     5    94    93    2
     6    90    87    1
     7    92    95    1
     8    92    93    1
     9    95    97    1
    10    87    86    1
    11    26    27    1
    12    86    84   am
    13    29    28    2
    14    30    27    1
    15    30    31    1
    16    33    31    1
    17    27    28    1
    18    84    83    1
    19    84    85    2
    20    32    31    1
    21    28    34   am
    22    83    82    1
    23    81    79   ar
    24    79    80   ar
    25    79    78    1
    26    76    75    2
    27    34    35    1
    28    78    77    1
    29    39    38    1
    30    82    75   am
    31    35    38    1
    32    35    36    1
    33    75    74    1
    34    38    40    1
    35    77    74    1
    36    36    41   am
    37    36    37    2
    38    74    73    1
    39    41    42    1
    40    73    64   am
    41    42    43    1
    42    44    43    2
    43    64    63    1
    44    64    65    2
    45    69    71   ar
    46    69    67   ar
    47    43    45   am
    48    71    72   ar
    49    63    66    1
    50    63    62    1
    51    24    22    1
    52    66    67    1
    53    67    68   ar
    54    45    46    1
    55    20    19    1
    56    20    21    2
    57    72    70   ar
    58    19    22    1
    59    19    18    1
    60    22    23    1
    61    46    49    1
    62    46    47    1
    63    68    70   ar
    64    52    50    1
    65    50    49    1
    66    50    51    1
    67    25    23    1
    68    15    14    2
    69    18    14   am
    70    47    53   am
    71    47    48    2
    72    53    54    1
    73    14    13    1
    74    17    16    1
    75    56    55    2
    76    57    54    1
    77    57    58    1
    78    16    13    1
    79    54    55    1
    80    13    12    1
    81    58    59    1
    82    61    59   am
    83     7     5    1
    84    59    60    2
    85     5     6    1
    86     5     2    1
    87     4     3    2
    88     1     2    1
    89     2     3    1
    90     3     8   am
    91     8     9    1
    92    10     9    1
    93    10    11    2
