@<TRIPOS>MOLECULE
tmp/1uk0A00.pdb
 173 167 0 0 0
SMALL
GASTEIGER

@<TRIPOS>ATOM
      1  N         15.9400    1.2550   30.8340 N.3   102  GLU102     -0.1245
      2  CA        15.0950    1.5550   32.0510 C.3   102  GLU102      0.1567
      3  C         15.2770    2.9240   32.7430 C.2   102  GLU102      0.2260
      4  O         14.3330    3.6810   33.0360 O.2   102  GLU102     -0.2867
      5  CB        14.9220    0.4200   33.1300 C.3   102  GLU102      0.0388
      6  CG        16.0520   -0.5750   32.8890 C.3   102  GLU102      0.1160
      7  CD        15.5520   -1.9760   32.5610 C.2   102  GLU102      0.3649
      8  OE1       16.3470   -2.9130   32.2780 O.co2 102  GLU102     -0.2457
      9  OE2       14.3240   -2.1140   32.6080 O.co2 102  GLU102     -0.2457
     10  N         13.2520    5.2800   30.8950 N.3   105  ASP105     -0.1225
     11  CA        11.8040    5.0590   31.0250 C.3   105  ASP105      0.1805
     12  C         11.2310    5.7790   32.1690 C.2   105  ASP105      0.2597
     13  O         10.4450    6.6900   32.1420 O.2   105  ASP105     -0.2718
     14  CB        11.3170    3.6050   30.8720 C.3   105  ASP105      0.1424
     15  CG        11.3770    2.9170   29.4190 C.2   105  ASP105      0.3668
     16  OD1       11.8430    3.5020   28.3590 O.co2 105  ASP105     -0.2456
     17  OD2       10.9640    1.7050   29.3740 O.co2 105  ASP105     -0.2456
     18  N         11.9220    5.4380   33.2470 N.am  106  ASN106     -0.1974
     19  CA        11.7320    6.0680   34.5510 C.3   106  ASN106      0.1688
     20  C         11.9380    7.6020   34.5700 C.2   106  ASN106      0.2292
     21  O         11.0210    8.3660   34.8290 O.2   106  ASN106     -0.2864
     22  CB        12.5150    5.3820   35.6470 C.3   106  ASN106      0.1181
     23  CG        12.1280    3.9450   35.7100 C.2   106  ASN106      0.2629
     24  OD1       11.2490    3.3920   36.3340 O.2   106  ASN106     -0.2716
     25  ND2       13.0340    3.2310   35.1410 N.am  106  ASN106     -0.0877
     26  N         11.4150    9.3980   32.3230 N.3   108  LEU108     -0.1231
     27  CA        10.1580    9.9320   31.8450 C.3   108  LEU108      0.1693
     28  C          8.9800   10.1010   32.9100 C.2   108  LEU108      0.2592
     29  O          8.6930   11.2210   33.3010 O.2   108  LEU108     -0.2718
     30  CB         9.8580    9.2010   30.5070 C.3   108  LEU108      0.0284
     31  CG        10.6380    9.3700   29.1960 C.3   108  LEU108      0.0019
     32  CD1        9.9300    8.4270   28.1630 C.3   108  LEU108      0.0001
     33  CD2       10.8820   10.8750   28.9070 C.3   108  LEU108      0.0001
     34  N          8.4250    9.0510   33.4800 N.am  109  ASP109     -0.1974
     35  CA         7.4670    9.3210   34.5230 C.3   109  ASP109      0.1709
     36  C          7.9440   10.2960   35.7930 C.2   109  ASP109      0.2293
     37  O          7.2540   11.2120   36.3320 O.2   109  ASP109     -0.2864
     38  CB         7.0700    7.8790   34.8930 C.3   109  ASP109      0.1436
     39  CG         5.8380    7.3260   34.1720 C.2   109  ASP109      0.3671
     40  OD1        5.3670    8.0950   33.3660 O.co2 109  ASP109     -0.2456
     41  OD2        5.3720    6.1710   34.3610 O.co2 109  ASP109     -0.2456
     42  N          0.1350   -4.5280   36.1580 N.3   201  HIS201     -0.1226
     43  CA         1.2450   -3.5960   35.8040 C.3   201  HIS201      0.1752
     44  C          2.1530   -3.0770   37.0040 C.2   201  HIS201      0.2597
     45  O          1.9510   -2.0320   37.6160 O.2   201  HIS201     -0.2718
     46  CB         0.7020   -2.4040   34.9980 C.3   201  HIS201      0.0759
     47  CG         1.9730   -1.8490   34.4720 C.ar  201  HIS201      0.0818
     48  ND1        2.7440   -2.4620   33.5460 N.ar  201  HIS201     -0.2268
     49  CD2        2.6240   -0.6930   34.8720 C.ar  201  HIS201      0.1154
     50  CE1        3.8580   -1.6910   33.3800 C.ar  201  HIS201      0.1986
     51  NE2        3.8040   -0.5890   34.1980 N.ar  201  HIS201     -0.2212
     52  N          3.1980   -3.7930   37.4150 N.am  202  GLY202     -0.1942
     53  CA         4.0130   -3.1710   38.5340 C.3   202  GLY202      0.2014
     54  C          5.1610   -2.1650   38.1870 C.2   202  GLY202      0.2639
     55  O          5.9370   -2.3060   37.2770 O.2   202  GLY202     -0.2714
     56  N          5.2320   -1.1050   38.9120 N.am  203  SER203     -0.1949
     57  CA         6.2020   -0.0950   38.4890 C.3   203  SER203      0.1924
     58  C          6.8560    0.6710   39.6930 C.2   203  SER203      0.2314
     59  O          6.2890    0.8040   40.7700 O.2   203  SER203     -0.2863
     60  CB         5.2480    0.7870   37.6590 C.3   203  SER203      0.2116
     61  OG         5.8140    1.7400   36.7250 O.3   203  SER203     -0.2180
     62  N          6.9780    6.8190   39.0850 N.3   207  ASN207     -0.1240
     63  CA         6.1210    6.4570   37.9760 C.3   207  ASN207      0.1653
     64  C          4.6020    6.8200   37.9900 C.2   207  ASN207      0.2266
     65  O          4.0950    7.4590   37.0840 O.2   207  ASN207     -0.2867
     66  CB         6.2350    4.9300   37.8370 C.3   207  ASN207      0.1155
     67  CG         7.4830    4.5800   37.0030 C.2   207  ASN207      0.2627
     68  OD1        8.0620    5.4620   36.3930 O.2   207  ASN207     -0.2716
     69  ND2        7.9340    3.3130   36.9430 N.am  207  ASN207     -0.0877
     70  N         -0.7420    4.6270   31.7390 N.3   216  LEU216     -0.1231
     71  CA         0.4120    3.8800   31.2800 C.3   216  LEU216      0.1693
     72  C          0.8430    4.0580   29.8510 C.2   216  LEU216      0.2592
     73  O          0.0520    4.3680   29.0280 O.2   216  LEU216     -0.2718
     74  CB         0.0560    2.4930   31.3230 C.3   216  LEU216      0.0284
     75  CG         0.2380    2.0040   32.7160 C.3   216  LEU216      0.0019
     76  CD1       -0.1040    0.5300   32.8030 C.3   216  LEU216      0.0001
     77  CD2        1.6510    2.3850   33.2700 C.3   216  LEU216      0.0001
     78  N          2.0930    3.8150   29.5050 N.am  217  ARG217     -0.1966
     79  CA         2.5520    4.4860   28.2560 C.3   217  ARG217      0.1729
     80  C          3.5290    3.6870   27.4230 C.2   217  ARG217      0.2616
     81  O          3.7820    2.6010   27.8220 O.2   217  ARG217     -0.2715
     82  CB         3.2390    5.7270   28.6580 C.3   217  ARG217      0.0348
     83  CG         2.5760    6.8420   27.9830 C.3   217  ARG217      0.0492
     84  CD         2.9100    8.1440   28.6340 C.3   217  ARG217      0.2205
     85  NE         2.3990    7.9460   29.9800 N.pl3 217  ARG217     -0.0865
     86  CZ         3.3270    7.9970   31.0190 C.cat 217  ARG217      0.5346
     87  NH1        4.4810    8.7700   30.9420 N.pl3 217  ARG217      0.1354
     88  NH2        3.0900    7.2030   32.0500 N.pl3 217  ARG217      0.1354
     89  N          4.0850    4.1420   26.3240 N.am  218  ILE218     -0.1963
     90  CA         5.1050    3.2970   25.6790 C.3   218  ILE218      0.1727
     91  C          6.2850    4.0940   25.1190 C.2   218  ILE218      0.2616
     92  O          6.1890    5.2560   24.8490 O.2   218  ILE218     -0.2715
     93  CB         4.5440    2.3680   24.5790 C.3   218  ILE218      0.0290
     94  CG1        5.0280    2.7130   23.1850 C.3   218  ILE218      0.0022
     95  CG2        3.0100    2.2410   24.4340 C.3   218  ILE218      0.0023
     96  CD1        4.4490    1.6210   22.2720 C.3   218  ILE218      0.0001
     97  N          7.3910    3.4670   25.0310 N.am  219  ALA219     -0.1977
     98  CA         8.6110    4.2230   24.8040 C.3   219  ALA219      0.1597
     99  C          8.5930    5.2130   23.5950 C.2   219  ALA219      0.2287
    100  O          7.9130    5.0540   22.6240 O.2   219  ALA219     -0.2864
    101  CB         9.7490    3.1770   24.8160 C.3   219  ALA219      0.0319
    102  N          3.8990   -3.7220   28.9630 N.3   235  TYR235     -0.1227
    103  CA         4.0990   -5.0400   29.5640 C.3   235  TYR235      0.1736
    104  C          3.3410   -5.3360   30.8560 C.2   235  TYR235      0.2595
    105  O          3.0050   -4.4770   31.6820 O.2   235  TYR235     -0.2718
    106  CB         5.5460   -5.2900   29.9160 C.3   235  TYR235      0.0548
    107  CG         6.4180   -5.3970   28.6640 C.ar  235  TYR235     -0.0200
    108  CD1        6.5180   -4.2840   27.8210 C.ar  235  TYR235     -0.0009
    109  CD2        7.0910   -6.6060   28.4050 C.ar  235  TYR235     -0.0009
    110  CE1        7.3910   -4.3300   26.7830 C.ar  235  TYR235      0.0417
    111  CE2        7.8950   -6.6650   27.2870 C.ar  235  TYR235      0.0417
    112  CZ         8.0860   -5.5020   26.4920 C.ar  235  TYR235      0.1957
    113  OH         8.8920   -5.5460   25.3500 O.3   235  TYR235     -0.2866
    114  N          2.9730   -6.5980   30.9560 N.am  236  PHE236     -0.1962
    115  CA         1.9180   -6.8480   31.9520 C.3   236  PHE236      0.1771
    116  C          2.1520   -8.2290   32.4450 C.2   236  PHE236      0.2619
    117  O          2.6730   -9.0760   31.7380 O.2   236  PHE236     -0.2715
    118  CB         0.4920   -6.8420   31.3680 C.3   236  PHE236      0.0574
    119  CG        -0.1660   -5.4750   31.1620 C.ar  236  PHE236     -0.0200
    120  CD1       -0.3350   -5.0050   29.8580 C.ar  236  PHE236     -0.0042
    121  CD2       -0.6150   -4.6600   32.2060 C.ar  236  PHE236     -0.0042
    122  CE1       -0.7470   -3.6690   29.6580 C.ar  236  PHE236     -0.0003
    123  CE2       -1.1440   -3.3480   31.9870 C.ar  236  PHE236     -0.0003
    124  CZ        -1.1030   -2.8140   30.7230 C.ar  236  PHE236     -0.0000
    125  N          1.7370   -8.5120   33.6810 N.am  237  ALA237     -0.1977
    126  CA         1.9540   -9.9110   34.2020 C.3   237  ALA237      0.1597
    127  C          0.7330  -10.7420   34.7490 C.2   237  ALA237      0.2287
    128  O         -0.2830  -10.1990   35.1420 O.2   237  ALA237     -0.2864
    129  CB         3.1970   -9.9380   35.1930 C.3   237  ALA237      0.0319
    130  N          6.3180  -11.3810   39.1510 N.3   242  LYS242     -0.1231
    131  CA         7.0040  -10.6740   37.9650 C.3   242  LYS242      0.1696
    132  C          6.8700   -9.0920   37.9290 C.2   242  LYS242      0.2592
    133  O          7.8060   -8.3460   37.6620 O.2   242  LYS242     -0.2718
    134  CB         6.8320  -11.3520   36.5340 C.3   242  LYS242      0.0331
    135  CG         8.0360  -11.3650   35.4980 C.3   242  LYS242      0.0295
    136  CD         8.6680  -12.7800   34.7410 C.2   242  LYS242     -0.0067
    137  CE        10.2100  -13.3710   34.6950 C.2   242  LYS242      0.1012
    138  NZ        10.5070  -14.5690   33.9750 N.pl3 242  LYS242     -0.1270
    139  N          5.6350   -8.6530   38.2910 N.am  243  SER243     -0.1952
    140  CA         5.3460   -7.2270   38.4560 C.3   243  SER243      0.1924
    141  C          5.7490   -6.5450   39.7130 C.2   243  SER243      0.2314
    142  O          6.1620   -5.3870   39.7310 O.2   243  SER243     -0.2863
    143  CB         3.9090   -6.8310   38.5500 C.3   243  SER243      0.2116
    144  OG         3.2260   -7.4410   37.5230 O.3   243  SER243     -0.2180
    145  N          9.1100   -5.2300   40.1000 N.3   246  TYR246     -0.1241
    146  CA         9.4350   -3.9100   39.5370 C.3   246  TYR246      0.1605
    147  C          9.1290   -2.7010   40.4940 C.2   246  TYR246      0.2264
    148  O          9.0530   -1.5000   40.2070 O.2   246  TYR246     -0.2867
    149  CB         8.5900   -3.8610   38.2300 C.3   246  TYR246      0.0534
    150  CG         9.1070   -4.7270   37.0660 C.ar  246  TYR246     -0.0201
    151  CD1       10.2460   -4.3990   36.2670 C.ar  246  TYR246     -0.0009
    152  CD2        8.4030   -5.9370   36.8260 C.ar  246  TYR246     -0.0009
    153  CE1       10.7610   -5.2770   35.2960 C.ar  246  TYR246      0.0417
    154  CE2        8.9200   -6.8270   35.8760 C.ar  246  TYR246      0.0417
    155  CZ        10.1100   -6.5260   35.1280 C.ar  246  TYR246      0.1957
    156  OH        10.6750   -7.4760   34.2880 O.3   246  TYR246     -0.2866
    157  N          4.3670  -16.0100   32.4840 N.3   326  ASN326     -0.1225
    158  CA         3.8390  -15.3140   31.3160 C.3   326  ASN326      0.1785
    159  C          4.1380  -13.8390   31.3440 C.2   326  ASN326      0.2597
    160  O          4.2960  -13.3430   32.4210 O.2   326  ASN326     -0.2718
    161  CB         2.3690  -15.6070   31.3370 C.3   326  ASN326      0.1169
    162  CG         2.0550  -17.0980   31.1250 C.2   326  ASN326      0.2627
    163  OD1        0.9410  -17.5150   31.2210 O.2   326  ASN326     -0.2716
    164  ND2        3.0090  -18.0260   30.9670 N.am  326  ASN326     -0.0877
    165  N          4.1990  -13.1650   30.2750 N.am  327  GLU327     -0.1979
    166  CA         4.2980  -11.6980   29.9770 C.3   327  GLU327      0.1602
    167  C          3.4950  -11.0680   28.7750 C.2   327  GLU327      0.2287
    168  O          4.0600  -10.7060   27.7660 O.2   327  GLU327     -0.2864
    169  CB         5.7340  -11.5650   29.5800 C.3   327  GLU327      0.0415
    170  CG         6.3600  -10.2000   29.5480 C.3   327  GLU327      0.1163
    171  CD         7.8180  -10.4610   29.3280 C.2   327  GLU327      0.3649
    172  OE1        8.4630   -9.6650   28.6140 O.co2 327  GLU327     -0.2457
    173  OE2        8.3010  -11.4520   29.8850 O.co2 327  GLU327     -0.2457
@<TRIPOS>BOND
     1    96    94    1
     2   100    99    2
     3    94    93    1
     4    99    98    1
     5    95    93    1
     6    93    90    1
     7    98   101    1
     8    98    97    1
     9    92    91    2
    10    97    91   am
    11    91    90    1
    12   113   112    1
    13    90    89    1
    14    89    80   am
    15   112   110   ar
    16   112   111   ar
    17   110   108   ar
    18   111   109   ar
    19    80    81    2
    20    80    79    1
    21   168   167    2
    22   108   107   ar
    23    83    84    1
    24    83    82    1
    25    32    31    1
    26    79    82    1
    27    79    78    1
    28    16    15   ar
    29   109   107   ar
    30   172   171   ar
    31    84    85    1
    32   107   106    1
    33   167   166    1
    34    33    31    1
    35   102   103    1
    36    73    72    2
    37    31    30    1
    38   171   170    1
    39   171   173   ar
    40    17    15   ar
    41    15    14    1
    42    78    72   am
    43   170   169    1
    44   103   106    1
    45   103   104    1
    46   169   166    1
    47   122   120   ar
    48   122   124   ar
    49    72    71    1
    50   120   119   ar
    51   166   165    1
    52    85    86    2
    53   165   159   am
    54    30    27    1
    55   124   123   ar
    56     1     2    1
    57   104   114   am
    58   104   105    2
    59    14    11    1
    60    10    11    1
    61    87    86    1
    62   114   115    1
    63   164   162   am
    64    86    88    1
    65    11    12    1
    66   162   163    2
    67   162   161    1
    68   119   118    1
    69   119   121   ar
    70    71    74    1
    71    71    70    1
    72   158   161    1
    73   158   159    1
    74   158   157    1
    75    74    75    1
    76   159   160    2
    77   118   115    1
    78   117   116    2
    79    27    26    1
    80    27    28    1
    81   115   116    1
    82   123   121   ar
    83     2     3    1
    84     2     5    1
    85    13    12    2
    86    12    18   am
    87     8     7   ar
    88   116   125   am
    89     7     9   ar
    90     7     6    1
    91    75    76    1
    92    75    77    1
    93     3     4    2
    94     6     5    1
    95    28    29    2
    96    28    34   am
    97    18    19    1
    98    40    39   ar
    99    50    48   ar
   100    50    51   ar
   101    34    35    1
   102    48    47   ar
   103   125   126    1
   104   138   137    1
   105    39    41   ar
   106    39    38    1
   107    51    49   ar
   108   126   127    1
   109   126   129    1
   110   156   155    1
   111    47    49   ar
   112    47    46    1
   113    35    38    1
   114    35    36    1
   115    19    20    1
   116    19    22    1
   117    20    21    2
   118   137   136    2
   119   136   135    1
   120   127   128    2
   121    46    43    1
   122   155   153   ar
   123   155   154   ar
   124    25    23   am
   125   153   151   ar
   126   135   134    1
   127    22    23    1
   128    23    24    2
   129    36    37    2
   130    43    42    1
   131    43    44    1
   132   154   152   ar
   133   151   150   ar
   134    68    67    2
   135   134   131    1
   136    61    60    1
   137   152   150   ar
   138    69    67   am
   139    67    66    1
   140    44    52   am
   141    44    45    2
   142   150   149    1
   143    65    64    2
   144    55    54    2
   145    52    53    1
   146   144   143    1
   147    60    57    1
   148   133   132    2
   149    66    63    1
   150   132   131    1
   151   132   139   am
   152   131   130    1
   153    63    64    1
   154    63    62    1
   155    54    53    1
   156    54    56   am
   157   149   146    1
   158   139   140    1
   159   140   143    1
   160   140   141    1
   161    57    56    1
   162    57    58    1
   163   146   145    1
   164   146   147    1
   165    58    59    2
   166   141   142    2
   167   148   147    2
