@<TRIPOS>MOLECULE
tmp/1uk1B00.pdb
 209 202 0 0 0
SMALL
GASTEIGER

@<TRIPOS>ATOM
      1  N         28.1640   -2.1210   62.7980 N.3    49  TYR49      -0.1241
      2  CA        29.1930   -1.0950   63.0410 C.3    49  TYR49       0.1605
      3  C         30.1320   -0.8170   61.8610 C.2    49  TYR49       0.2264
      4  O         30.3570    0.3210   61.4790 O.2    49  TYR49      -0.2867
      5  CB        30.0580   -1.4360   64.2520 C.3    49  TYR49       0.0534
      6  CG        29.5240   -1.0740   65.6150 C.ar   49  TYR49      -0.0201
      7  CD1       29.2930    0.2530   65.9730 C.ar   49  TYR49      -0.0009
      8  CD2       29.3410   -2.1210   66.5330 C.ar   49  TYR49      -0.0009
      9  CE1       28.8780    0.5310   67.2810 C.ar   49  TYR49       0.0417
     10  CE2       28.9260   -1.8490   67.8400 C.ar   49  TYR49       0.0417
     11  CZ        28.7210   -0.5200   68.2020 C.ar   49  TYR49       0.1957
     12  OH        28.3690   -0.2610   69.5120 O.3    49  TYR49      -0.2866
     13  N         25.1310    5.3490   68.2850 N.3   102  GLU102     -0.1245
     14  CA        24.6920    5.3270   69.7030 C.3   102  GLU102      0.1567
     15  C         23.7020    4.2370   70.0610 C.2   102  GLU102      0.2260
     16  O         23.9090    3.4560   70.9800 O.2   102  GLU102     -0.2867
     17  CB        24.2530    6.6610   70.3210 C.3   102  GLU102      0.0388
     18  CG        25.3140    7.7970   70.5420 C.3   102  GLU102      0.1160
     19  CD        26.5890    7.5310   71.4270 C.2   102  GLU102      0.3649
     20  OE1       27.6270    8.1260   71.0930 O.co2 102  GLU102     -0.2457
     21  OE2       26.5530    6.7690   72.4190 O.co2 102  GLU102     -0.2457
     22  N         25.7640    0.9820   70.3570 N.3   105  ASP105     -0.1239
     23  CA        26.5240    0.8900   71.6300 C.3   105  ASP105      0.1674
     24  C         25.6510    0.2620   72.6660 C.2   105  ASP105      0.2266
     25  O         25.8260   -0.8440   73.1470 O.2   105  ASP105     -0.2867
     26  CB        26.9210    2.2550   72.1800 C.3   105  ASP105      0.1410
     27  CG        27.7220    3.0850   71.2080 C.2   105  ASP105      0.3668
     28  OD1       28.3410    2.5010   70.3310 O.co2 105  ASP105     -0.2456
     29  OD2       27.7270    4.3100   71.3330 O.co2 105  ASP105     -0.2456
     30  N         24.7400   -3.3520   72.2310 N.3   108  LEU108     -0.1231
     31  CA        25.7480   -4.2960   72.7780 C.3   108  LEU108      0.1693
     32  C         25.6690   -4.5670   74.2750 C.2   108  LEU108      0.2592
     33  O         25.9340   -5.6430   74.7870 O.2   108  LEU108     -0.2718
     34  CB        27.1760   -3.8500   72.5390 C.3   108  LEU108      0.0284
     35  CG        27.7130   -4.2090   71.1840 C.3   108  LEU108      0.0019
     36  CD1       29.1670   -3.7950   71.0840 C.3   108  LEU108      0.0001
     37  CD2       27.4800   -5.6810   70.8750 C.3   108  LEU108      0.0001
     38  N         25.2160   -3.5270   74.9790 N.am  109  ASP109     -0.1974
     39  CA        24.8320   -3.8770   76.3420 C.3   109  ASP109      0.1709
     40  C         23.4910   -4.6000   76.5990 C.2   109  ASP109      0.2293
     41  O         23.4160   -5.5660   77.3370 O.2   109  ASP109     -0.2864
     42  CB        25.0920   -2.6870   77.2470 C.3   109  ASP109      0.1436
     43  CG        26.5530   -2.2750   77.4090 C.2   109  ASP109      0.3671
     44  OD1       27.4290   -3.1400   77.4900 O.co2 109  ASP109     -0.2456
     45  OD2       26.7840   -1.0600   77.4830 O.co2 109  ASP109     -0.2456
     46  N         30.6970    8.6530   85.3120 N.3   201  HIS201     -0.1226
     47  CA        30.2670    8.1790   84.0020 C.3   201  HIS201      0.1752
     48  C         28.8180    7.7440   84.0060 C.2   201  HIS201      0.2597
     49  O         28.4440    6.7380   84.5940 O.2   201  HIS201     -0.2718
     50  CB        31.2350    7.0750   83.5980 C.3   201  HIS201      0.0759
     51  CG        30.7830    6.3200   82.3640 C.ar  201  HIS201      0.0818
     52  ND1       31.1850    6.5980   81.1230 N.ar  201  HIS201     -0.2268
     53  CD2       29.9170    5.2310   82.3090 C.ar  201  HIS201      0.1154
     54  CE1       30.5940    5.7150   80.2890 C.ar  201  HIS201      0.1986
     55  NE2       29.8190    4.8790   81.0270 N.ar  201  HIS201     -0.2212
     56  N         28.0190    8.5670   83.3300 N.am  202  GLY202     -0.1942
     57  CA        26.5880    8.2280   83.1160 C.3   202  GLY202      0.2014
     58  C         26.1570    7.3480   81.9330 C.2   202  GLY202      0.2639
     59  O         26.7500    7.3630   80.8780 O.2   202  GLY202     -0.2714
     60  N         25.1110    6.5620   82.1800 N.am  203  SER203     -0.1949
     61  CA        24.6550    5.5250   81.2350 C.3   203  SER203      0.1924
     62  C         23.1680    5.0760   81.3540 C.2   203  SER203      0.2314
     63  O         22.4390    5.3620   82.3040 O.2   203  SER203     -0.2863
     64  CB        25.6090    4.3030   81.2620 C.3   203  SER203      0.2116
     65  OG        25.5020    3.4250   80.1160 O.3   203  SER203     -0.2180
     66  N         22.1120   -0.9080   79.7770 N.3   207  ASN207     -0.1240
     67  CA        23.5710   -1.0180   79.5770 C.3   207  ASN207      0.1653
     68  C         24.2970   -1.6020   80.7650 C.2   207  ASN207      0.2266
     69  O         25.1440   -2.4960   80.7310 O.2   207  ASN207     -0.2867
     70  CB        24.2080    0.3400   79.3400 C.3   207  ASN207      0.1155
     71  CG        24.3030    0.6820   77.8700 C.2   207  ASN207      0.2627
     72  OD1       23.9900   -0.0810   76.9800 O.2   207  ASN207     -0.2716
     73  ND2       24.8060    1.8900   77.6320 N.am  207  ASN207     -0.0877
     74  N         28.0260   -3.3360   81.9930 N.3   211  ILE211     -0.1245
     75  CA        29.0580   -2.6020   82.7550 C.3   211  ILE211      0.1561
     76  C         29.5740   -3.2250   84.0840 C.2   211  ILE211      0.2260
     77  O         30.7570   -3.2600   84.3750 O.2   211  ILE211     -0.2867
     78  CB        28.6370   -1.1630   83.0160 C.3   211  ILE211      0.0252
     79  CG1       28.0390   -0.5010   81.8000 C.3   211  ILE211      0.0019
     80  CG2       29.8480   -0.3630   83.5100 C.3   211  ILE211      0.0019
     81  CD1       27.8580    1.0050   82.0440 C.3   211  ILE211      0.0001
     82  N         33.3430   -0.6780   82.3080 N.3   216  LEU216     -0.1231
     83  CA        33.4600    0.2430   81.1580 C.3   216  LEU216      0.1693
     84  C         34.3960   -0.1780   80.0590 C.2   216  LEU216      0.2592
     85  O         35.5730    0.0390   80.1700 O.2   216  LEU216     -0.2718
     86  CB        33.8720    1.6260   81.5810 C.3   216  LEU216      0.0284
     87  CG        32.7410    2.2720   82.3400 C.3   216  LEU216      0.0019
     88  CD1       33.0750    3.6800   82.8100 C.3   216  LEU216      0.0001
     89  CD2       31.4760    2.2610   81.5050 C.3   216  LEU216      0.0001
     90  N         33.8600   -0.7940   79.0150 N.am  217  ARG217     -0.1966
     91  CA        34.6970   -1.1320   77.8780 C.3   217  ARG217      0.1729
     92  C         34.9160   -0.0690   76.8240 C.2   217  ARG217      0.2616
     93  O         34.2820    0.9530   76.6710 O.2   217  ARG217     -0.2715
     94  CB        34.1600   -2.3610   77.1860 C.3   217  ARG217      0.0348
     95  CG        34.6820   -3.6770   77.7000 C.3   217  ARG217      0.0492
     96  CD        33.5370   -4.6820   77.8250 C.3   217  ARG217      0.2205
     97  NE        32.4770   -4.1170   78.6840 N.pl3 217  ARG217     -0.0865
     98  CZ        31.2030   -4.0070   78.2460 C.cat 217  ARG217      0.5346
     99  NH1       30.7830   -4.7440   77.2040 N.pl3 217  ARG217      0.1354
    100  NH2       30.4000   -3.1130   78.8370 N.pl3 217  ARG217      0.1354
    101  N         35.8610   -0.4620   76.0280 N.am  218  ILE218     -0.1963
    102  CA        36.0480   -0.0200   74.6390 C.3   218  ILE218      0.1727
    103  C         35.0310   -0.3310   73.5040 C.2   218  ILE218      0.2616
    104  O         34.4350   -1.3840   73.4270 O.2   218  ILE218     -0.2715
    105  CB        37.4410   -0.5520   74.2940 C.3   218  ILE218      0.0290
    106  CG1       37.8260   -1.9370   74.9570 C.3   218  ILE218      0.0022
    107  CG2       38.4330    0.5820   74.6930 C.3   218  ILE218      0.0023
    108  CD1       37.0620   -3.2620   74.8360 C.3   218  ILE218      0.0001
    109  N         34.8930    0.5840   72.5550 N.am  219  ALA219     -0.1964
    110  CA        34.0910    0.1280   71.4020 C.3   219  ALA219      0.1713
    111  C         34.7380   -0.8410   70.3950 C.2   219  ALA219      0.2458
    112  O         35.9390   -0.8060   70.1600 O.2   219  ALA219     -0.2730
    113  CB        33.5220    1.3010   70.6220 C.3   219  ALA219      0.0333
    114  N         33.9400   -1.7460   69.7630 N.am  220  PRO220     -0.2727
    115  CA        34.5830   -2.8210   68.9950 C.3   220  PRO220      0.1402
    116  C         35.2210   -2.3520   67.6960 C.2   220  PRO220      0.2269
    117  O         34.8730   -1.2860   67.2300 O.2   220  PRO220     -0.2865
    118  CB        33.4210   -3.7980   68.8490 C.3   220  PRO220      0.0296
    119  CG        32.1550   -2.9810   68.8320 C.3   220  PRO220      0.0237
    120  CD        32.4950   -1.8900   69.8210 C.3   220  PRO220      0.0939
    121  N         31.9080    9.3250   67.3110 N.3   228  TYR228     -0.1241
    122  CA        32.4200    9.5780   68.6730 C.3   228  TYR228      0.1605
    123  C         33.3890   10.7480   68.7280 C.2   228  TYR228      0.2264
    124  O         34.4290   10.7050   68.0890 O.2   228  TYR228     -0.2867
    125  CB        33.2830    8.4720   69.2140 C.3   228  TYR228      0.0534
    126  CG        32.6080    7.1560   69.2630 C.ar  228  TYR228     -0.0201
    127  CD1       33.0590    6.2270   68.3370 C.ar  228  TYR228     -0.0009
    128  CD2       31.5820    6.8880   70.1830 C.ar  228  TYR228     -0.0009
    129  CE1       32.4410    4.9820   68.2940 C.ar  228  TYR228      0.0417
    130  CE2       30.9540    5.6370   70.1230 C.ar  228  TYR228      0.0417
    131  CZ        31.3800    4.7040   69.1630 C.ar  228  TYR228      0.1957
    132  OH        30.7530    3.4850   69.0360 O.3   228  TYR228     -0.2866
    133  N         37.3860    6.0870   70.5590 N.3   232  LYS232     -0.1231
    134  CA        37.0740    5.1230   71.6190 C.3   232  LYS232      0.1693
    135  C         38.2950    4.4910   72.3130 C.2   232  LYS232      0.2592
    136  O         38.9500    3.5460   71.8760 O.2   232  LYS232     -0.2718
    137  CB        36.0960    4.0640   71.1420 C.3   232  LYS232      0.0285
    138  CG        35.7820    4.0280   69.6260 C.3   232  LYS232      0.0035
    139  CD        36.9030    3.7030   68.6600 C.3   232  LYS232      0.0206
    140  CE        36.2960    3.2480   67.3740 C.3   232  LYS232      0.1093
    141  NZ        36.0200    1.8120   67.4760 N.3   232  LYS232     -0.1314
    142  N         38.6310    5.0730   73.4500 N.am  233  GLY233     -0.1957
    143  CA        37.7840    6.0210   74.1930 C.3   233  GLY233      0.1869
    144  C         36.7100    5.4850   75.1560 C.2   233  GLY233      0.2309
    145  O         35.6370    5.1120   74.7320 O.2   233  GLY233     -0.2863
    146  N         34.5920    7.3990   77.9850 N.3   235  TYR235     -0.1227
    147  CA        34.3470    8.8000   78.3800 C.3   235  TYR235      0.1736
    148  C         33.7770    9.0730   79.7740 C.2   235  TYR235      0.2595
    149  O         32.7370    8.5920   80.1790 O.2   235  TYR235     -0.2718
    150  CB        33.4130    9.5550   77.4250 C.3   235  TYR235      0.0548
    151  CG        33.8580    9.6680   76.0000 C.ar  235  TYR235     -0.0200
    152  CD1       34.0570    8.5010   75.2620 C.ar  235  TYR235     -0.0009
    153  CD2       34.0100   10.9420   75.4520 C.ar  235  TYR235     -0.0009
    154  CE1       34.4040    8.5950   73.9250 C.ar  235  TYR235      0.0417
    155  CE2       34.3770   11.0500   74.1130 C.ar  235  TYR235      0.0417
    156  CZ        34.5650    9.8670   73.3750 C.ar  235  TYR235      0.1957
    157  OH        34.9310    9.9140   72.0610 O.3   235  TYR235     -0.2866
    158  N         34.4720    9.9080   80.4970 N.am  236  PHE236     -0.1962
    159  CA        33.9660   10.3050   81.7950 C.3   236  PHE236      0.1771
    160  C         33.7050   11.7660   81.7770 C.2   236  PHE236      0.2619
    161  O         34.1790   12.4750   80.9050 O.2   236  PHE236     -0.2715
    162  CB        34.9910    9.9920   82.8690 C.3   236  PHE236      0.0574
    163  CG        35.3670    8.5370   82.9040 C.ar  236  PHE236     -0.0200
    164  CD1       36.3430    8.0670   82.0240 C.ar  236  PHE236     -0.0042
    165  CD2       34.7310    7.6850   83.8160 C.ar  236  PHE236     -0.0042
    166  CE1       36.7160    6.7250   82.0790 C.ar  236  PHE236     -0.0003
    167  CE2       35.0880    6.3290   83.8520 C.ar  236  PHE236     -0.0003
    168  CZ        36.0900    5.8730   83.0000 C.ar  236  PHE236     -0.0000
    169  N         33.0070   12.2140   82.7850 N.am  237  ALA237     -0.1977
    170  CA        33.1640   13.6430   83.0280 C.3   237  ALA237      0.1597
    171  C         33.2590   14.0070   84.4960 C.2   237  ALA237      0.2287
    172  O         33.1360   13.1820   85.3890 O.2   237  ALA237     -0.2864
    173  CB        32.0530   14.4680   82.3410 C.3   237  ALA237      0.0319
    174  N         26.1690   16.5840   83.3820 N.3   242  LYS242     -0.1231
    175  CA        26.7330   16.0350   82.1130 C.3   242  LYS242      0.1693
    176  C         26.7850   14.5300   81.9580 C.2   242  LYS242      0.2592
    177  O         26.3040   13.9160   81.0230 O.2   242  LYS242     -0.2718
    178  CB        28.1100   16.5880   81.8010 C.3   242  LYS242      0.0285
    179  CG        28.8380   16.0360   80.5820 C.3   242  LYS242      0.0035
    180  CD        29.5870   17.2110   79.9560 C.3   242  LYS242      0.0206
    181  CE        30.6370   16.9630   78.8770 C.3   242  LYS242      0.1093
    182  NZ        30.8000   15.5540   78.5760 N.3   242  LYS242     -0.1314
    183  N         27.3210   13.9220   82.9730 N.am  243  SER243     -0.1952
    184  CA        27.2350   12.4720   82.8120 C.3   243  SER243      0.1924
    185  C         25.8530   11.8420   83.0080 C.2   243  SER243      0.2314
    186  O         25.5540   10.7450   82.5560 O.2   243  SER243     -0.2863
    187  CB        28.3220   11.7820   83.6450 C.3   243  SER243      0.2116
    188  OG        29.1080   12.7950   84.2800 O.3   243  SER243     -0.2180
    189  N         23.6750   11.0040   79.8870 N.3   246  TYR246     -0.1241
    190  CA        23.8000    9.6440   79.3390 C.3   246  TYR246      0.1605
    191  C         22.9890    8.5100   80.0060 C.2   246  TYR246      0.2264
    192  O         22.9320    7.3600   79.5990 O.2   246  TYR246     -0.2867
    193  CB        25.2750    9.3040   79.0990 C.3   246  TYR246      0.0534
    194  CG        25.9770   10.4470   78.3840 C.ar  246  TYR246     -0.0201
    195  CD1       25.9460   10.5500   76.9800 C.ar  246  TYR246     -0.0009
    196  CD2       26.6300   11.4190   79.1490 C.ar  246  TYR246     -0.0009
    197  CE1       26.5080   11.6690   76.3470 C.ar  246  TYR246      0.0417
    198  CE2       27.2050   12.5230   78.5150 C.ar  246  TYR246      0.0417
    199  CZ        27.1200   12.6550   77.1280 C.ar  246  TYR246      0.1957
    200  OH        27.6630   13.8010   76.5620 O.3   246  TYR246     -0.2866
    201  N         35.7260   17.0340   79.2910 N.3   327  GLU327     -0.1245
    202  CA        35.6870   15.5680   79.2960 C.3   327  GLU327      0.1567
    203  C         37.0000   14.8530   79.5540 C.2   327  GLU327      0.2260
    204  O         38.0910   15.2880   79.2490 O.2   327  GLU327     -0.2867
    205  CB        35.2640   15.0510   77.9630 C.3   327  GLU327      0.0388
    206  CG        33.8000   14.9540   77.7360 C.3   327  GLU327      0.1160
    207  CD        33.5340   15.1620   76.2660 C.2   327  GLU327      0.3649
    208  OE1       33.9390   14.3370   75.4340 O.co2 327  GLU327     -0.2457
    209  OE2       32.9010   16.1690   75.9600 O.co2 327  GLU327     -0.2457
@<TRIPOS>BOND
     1     4     3    2
     2     3     2    1
     3     1     2    1
     4     2     5    1
     5     5     6    1
     6     6     7   ar
     7     6     8   ar
     8     7     9   ar
     9     8    10   ar
    10   117   116    2
    11     9    11   ar
    12   121   122    1
    13   140   141    1
    14   140   139    1
    15   116   115    1
    16    10    11   ar
    17   124   123    2
    18    11    12    1
    19    13    14    1
    20   129   127   ar
    21   129   131   ar
    22   127   126   ar
    23   139   138    1
    24   122   123    1
    25   122   125    1
    26   119   118    1
    27   119   120    1
    28   118   115    1
    29   115   114    1
    30   132   131    1
    31   131   130   ar
    32   125   126    1
    33   126   128   ar
    34   138   137    1
    35    14    15    1
    36    14    17    1
    37   114   120    1
    38   114   111   am
    39    15    16    2
    40   130   128   ar
    41   112   111    2
    42    17    18    1
    43    28    27   ar
    44    22    23    1
    45   111   110    1
    46    18    19    1
    47   133   134    1
    48   113   110    1
    49    37    35    1
    50    36    35    1
    51    20    19   ar
    52   137   134    1
    53    35    34    1
    54    27    29   ar
    55    27    26    1
    56   110   109    1
    57    19    21   ar
    58   134   135    1
    59    23    26    1
    60    23    24    1
    61   136   135    2
    62   157   156    1
    63    30    31    1
    64   135   142   am
    65    34    31    1
    66   109   103   am
    67    24    25    2
    68    31    32    1
    69   156   154   ar
    70   156   155   ar
    71   104   103    2
    72   142   143    1
    73   103   102    1
    74   154   152   ar
    75   155   153   ar
    76   143   144    1
    77    32    33    2
    78    32    38   am
    79   105   102    1
    80   105   107    1
    81   105   106    1
    82   102   101    1
    83   145   144    2
    84   108   106    1
    85    38    39    1
    86   152   151   ar
    87   208   207   ar
    88   153   151   ar
    89   209   207   ar
    90   151   150    1
    91   101    92   am
    92   207   206    1
    93    39    40    1
    94    39    42    1
    95   197   195   ar
    96   197   199   ar
    97   200   199    1
    98    40    41    2
    99    93    92    2
   100    92    91    1
   101    72    71    2
   102   195   194   ar
   103   199   198   ar
   104    94    95    1
   105    94    91    1
   106    99    98    1
   107    42    43    1
   108    43    45   ar
   109    43    44   ar
   110   150   147    1
   111    73    71   am
   112    95    96    1
   113   206   205    1
   114    96    97    1
   115    71    70    1
   116    91    90    1
   117   205   202    1
   118   146   147    1
   119    98    97    2
   120    98   100    1
   121   147   148    1
   122   194   193    1
   123   194   196   ar
   124   198   196   ar
   125   182   181    1
   126   181   180    1
   127    90    84   am
   128   193   190    1
   129   204   203    2
   130   201   202    1
   131   202   203    1
   132   190   189    1
   133   190   191    1
   134    70    67    1
   135    67    66    1
   136    67    68    1
   137   192   191    2
   138   148   149    2
   139   148   158   am
   140   180   179    1
   141    84    85    2
   142    84    83    1
   143    65    64    1
   144    54    55   ar
   145    54    52   ar
   146   158   159    1
   147   179   178    1
   148    69    68    2
   149    59    58    2
   150   161   160    2
   151   177   176    2
   152    55    53   ar
   153    52    51   ar
   154    83    86    1
   155    83    82    1
   156    61    64    1
   157    61    62    1
   158    61    60    1
   159    62    63    2
   160    89    87    1
   161    86    87    1
   162   160   159    1
   163   160   169   am
   164   159   162    1
   165    79    81    1
   166    79    78    1
   167   178   175    1
   168    58    60   am
   169    58    57    1
   170   176   175    1
   171   176   183   am
   172    74    75    1
   173   164   166   ar
   174   164   163   ar
   175   166   168   ar
   176   175   174    1
   177    53    51   ar
   178    87    88    1
   179   173   170    1
   180    51    50    1
   181   186   185    2
   182    75    78    1
   183    75    76    1
   184   169   170    1
   185   184   183    1
   186   184   185    1
   187   184   187    1
   188   162   163    1
   189   163   165   ar
   190   168   167   ar
   191    78    80    1
   192   170   171    1
   193    57    56    1
   194    56    48   am
   195    50    47    1
   196   187   188    1
   197   165   167   ar
   198    47    48    1
   199    47    46    1
   200    48    49    2
   201    76    77    2
   202   171   172    2
