@<TRIPOS>MOLECULE
tmp/1uk4A00.pdb
 194 193 0 0 0
SMALL
GASTEIGER

@<TRIPOS>ATOM
      1  N         67.7580   11.4450    7.8520 N.3    23  THR23      -0.1203
      2  CA        68.1090   10.1050    8.3150 C.3    23  THR23       0.1994
      3  C         67.8060    9.9050    9.7990 C.2    23  THR23       0.2619
      4  O         68.1460   10.7540   10.6290 O.2    23  THR23      -0.2717
      5  CB        69.6170    9.8140    8.1060 C.3    23  THR23       0.1784
      6  OG1       69.9300    9.8810    6.7130 O.3    23  THR23      -0.2211
      7  CG2       69.9780    8.4300    8.6330 C.3    23  THR23       0.0376
      8  N         67.1800    8.7760   10.1240 N.am   24  THR24      -0.1938
      9  CA        66.8450    8.4400   11.5070 C.3    24  THR24       0.2028
     10  C         67.1880    6.9930   11.8180 C.2    24  THR24       0.2642
     11  O         67.0060    6.1130   10.9860 O.2    24  THR24      -0.2714
     12  CB        65.3510    8.6100   11.7870 C.3    24  THR24       0.1808
     13  OG1       64.9440    9.9290   11.4200 O.3    24  THR24      -0.2208
     14  CG2       65.0610    8.3940   13.2640 C.3    24  THR24       0.0379
     15  N         67.6810    6.7530   13.0240 N.am   25  LEU25      -0.1977
     16  CA        68.0270    5.4050   13.4530 C.3    25  LEU25       0.1596
     17  C         68.1770    5.3490   14.9710 C.2    25  LEU25       0.2287
     18  O         68.1200    6.3760   15.6430 O.2    25  LEU25      -0.2864
     19  CB        69.3030    4.9270   12.7490 C.3    25  LEU25       0.0297
     20  CG        70.4940    5.8820   12.6500 C.3    25  LEU25       0.0022
     21  CD1       70.9160    6.3530   14.0460 C.3    25  LEU25       0.0001
     22  CD2       71.6330    5.1700   11.9230 C.3    25  LEU25       0.0001
     23  N         77.1220    6.1610    9.8090 N.3    39  HIS39      -0.1241
     24  CA        76.4160    6.4520    8.5620 C.3    39  HIS39       0.1621
     25  C         75.0790    7.1450    8.8040 C.2    39  HIS39       0.2264
     26  O         74.2420    7.2030    7.9060 O.2    39  HIS39      -0.2867
     27  CB        76.2050    5.1800    7.7140 C.3    39  HIS39       0.0745
     28  CG        75.1290    4.2630    8.2230 C.ar   39  HIS39       0.0817
     29  ND1       75.4110    3.0700    8.8620 N.ar   39  HIS39      -0.2268
     30  CD2       73.7810    4.3490    8.1650 C.ar   39  HIS39       0.1154
     31  CE1       74.2790    2.4660    9.1720 C.ar   39  HIS39       0.1986
     32  NE2       73.2720    3.2160    8.7640 N.ar   39  HIS39      -0.2212
     33  N         76.7850    7.1410    0.6680 N.3    47  MET47      -0.1245
     34  CA        77.0710    5.7280    0.9190 C.3    47  MET47       0.1570
     35  C         78.0080    5.0270   -0.0660 C.2    47  MET47       0.2261
     36  O         78.8660    4.2510    0.3510 O.2    47  MET47      -0.2867
     37  CB        75.7560    4.9500    0.9900 C.3    47  MET47       0.0387
     38  CG        74.8380    5.3760    2.1240 C.3    47  MET47       0.0595
     39  SD        75.3000    4.6370    3.7030 S.3    47  MET47      -0.1393
     40  CE        76.6740    5.6640    4.1790 C.3    47  MET47       0.0692
     41  N         66.0090   -7.6480   10.7750 N.3   138  PHE138     -0.1227
     42  CA        66.0130   -6.1840   10.8650 C.3   138  PHE138      0.1736
     43  C         65.3430   -5.5560    9.6410 C.2   138  PHE138      0.2595
     44  O         65.7720   -5.7870    8.5110 O.2   138  PHE138     -0.2718
     45  CB        67.4510   -5.6490   10.9580 C.3   138  PHE138      0.0547
     46  CG        68.2050   -6.1040   12.1750 C.ar  138  PHE138     -0.0202
     47  CD1       69.2010   -7.0650   12.0630 C.ar  138  PHE138     -0.0042
     48  CD2       67.9400   -5.5560   13.4250 C.ar  138  PHE138     -0.0042
     49  CE1       69.9320   -7.4790   13.1740 C.ar  138  PHE138     -0.0003
     50  CE2       68.6620   -5.9600   14.5470 C.ar  138  PHE138     -0.0003
     51  CZ        69.6620   -6.9240   14.4200 C.ar  138  PHE138     -0.0000
     52  N         64.3010   -4.7690    9.8820 N.am  139  LEU139     -0.1966
     53  CA        63.6030   -4.1060    8.8170 C.3   139  LEU139      0.1728
     54  C         64.1880   -2.6780    8.7590 C.2   139  LEU139      0.2616
     55  O         65.2800   -2.4330    9.1710 O.2   139  LEU139     -0.2715
     56  CB        62.0890   -4.0620    9.0930 C.3   139  LEU139      0.0311
     57  CG        61.4220   -5.4140    9.3640 C.3   139  LEU139      0.0022
     58  CD1       59.9970   -5.1660    9.8430 C.3   139  LEU139      0.0001
     59  CD2       61.4260   -6.2760    8.1110 C.3   139  LEU139      0.0001
     60  N         63.4470   -1.7380    8.1990 N.am  140  ASN140     -0.1958
     61  CA        63.9010   -0.3600    8.0430 C.3   140  ASN140      0.1819
     62  C         63.9570    0.4500    9.3150 C.2   140  ASN140      0.2622
     63  O         63.0090    0.5160   10.0860 O.2   140  ASN140     -0.2715
     64  CB        63.0530    0.3950    7.0100 C.3   140  ASN140      0.1195
     65  CG        63.2040   -0.1830    5.6200 C.2   140  ASN140      0.2630
     66  OD1       64.3280   -0.4510    5.1760 O.2   140  ASN140     -0.2716
     67  ND2       62.0870   -0.3690    4.9180 N.am  140  ASN140     -0.0877
     68  N         65.0910    1.1090    9.5270 N.am  141  GLY141     -0.1940
     69  CA        65.2880    1.9410   10.7180 C.3   141  GLY141      0.2014
     70  C         65.6930    1.2010   11.9790 C.2   141  GLY141      0.2640
     71  O         65.5050    1.7170   13.0770 O.2   141  GLY141     -0.2714
     72  N         66.2470    0.0010   11.8260 N.am  142  SER142     -0.1935
     73  CA        66.6670   -0.7730   12.9900 C.3   142  SER142      0.2055
     74  C         68.1660   -0.6830   13.2410 C.2   142  SER142      0.2643
     75  O         68.7000   -1.3570   14.1180 O.2   142  SER142     -0.2714
     76  CB        66.2380   -2.2400   12.8570 C.3   142  SER142      0.2130
     77  OG        66.8510   -2.8850   11.7530 O.3   142  SER142     -0.2179
     78  N         68.8390    0.1530   12.4610 N.am  143  CYS143     -0.1967
     79  CA        70.2680    0.3390   12.6220 C.3   143  CYS143      0.1712
     80  C         70.4910    0.9600   13.9870 C.2   143  CYS143      0.2296
     81  O         69.7410    1.8470   14.4140 O.2   143  CYS143     -0.2864
     82  CB        70.8290    1.2610   11.5350 C.3   143  CYS143      0.0983
     83  SG        71.3100    0.4270    9.9940 S.3   143  CYS143     -0.0798
     84  N         74.0710   -2.9420   15.1190 N.3   161  HIS161     -0.1226
     85  CA        73.6990   -3.1790   13.7280 C.3   161  HIS161      0.1752
     86  C         73.9110   -2.0330   12.7480 C.2   161  HIS161      0.2596
     87  O         73.4440   -0.9160   12.9730 O.2   161  HIS161     -0.2718
     88  CB        72.2390   -3.6240   13.6820 C.3   161  HIS161      0.0759
     89  CG        71.8070   -4.1250   12.3480 C.ar  161  HIS161      0.0818
     90  ND1       72.4210   -5.1870   11.7210 N.ar  161  HIS161     -0.2268
     91  CD2       70.8230   -3.7130   11.5150 C.ar  161  HIS161      0.1154
     92  CE1       71.8350   -5.4080   10.5580 C.ar  161  HIS161      0.1986
     93  NE2       70.8610   -4.5270   10.4090 N.ar  161  HIS161     -0.2212
     94  N         74.5960   -2.3280   11.6450 N.am  162  HIS162     -0.1961
     95  CA        74.8720   -1.3250   10.6220 C.3   162  HIS162      0.1787
     96  C         74.3080   -1.6770    9.2360 C.2   162  HIS162      0.2620
     97  O         73.3930   -1.0180    8.7430 O.2   162  HIS162     -0.2715
     98  CB        76.3890   -1.1010   10.4880 C.3   162  HIS162      0.0785
     99  CG        77.0310   -0.4740   11.6900 C.ar  162  HIS162      0.0821
    100  ND1       77.5220    0.8160   11.6830 N.ar  162  HIS162     -0.2267
    101  CD2       77.2910   -0.9660   12.9220 C.ar  162  HIS162      0.1154
    102  CE1       78.0560    1.0890   12.8590 C.ar  162  HIS162      0.1986
    103  NE2       77.9300    0.0260   13.6310 N.ar  162  HIS162     -0.2212
    104  N         74.8510   -2.7270    8.6200 N.am  163  MET163     -0.1963
    105  CA        74.4570   -3.1270    7.2660 C.3   163  MET163      0.1736
    106  C         73.6210   -4.3920    7.1560 C.2   163  MET163      0.2616
    107  O         73.4760   -5.1530    8.1080 O.2   163  MET163     -0.2715
    108  CB        75.7040   -3.3660    6.4100 C.3   163  MET163      0.0427
    109  CG        76.8790   -2.4590    6.6800 C.3   163  MET163      0.0599
    110  SD        76.8590   -1.0010    5.6440 S.3   163  MET163     -0.1393
    111  CE        77.4310   -1.7110    4.1140 C.3   163  MET163      0.0692
    112  N         73.0870   -4.6020    5.9560 N.am  164  GLU164     -0.1963
    113  CA        72.3330   -5.8020    5.6190 C.3   164  GLU164      0.1733
    114  C         73.0840   -6.2840    4.3900 C.2   164  GLU164      0.2616
    115  O         73.5020   -5.4700    3.5660 O.2   164  GLU164     -0.2715
    116  CB        70.8950   -5.5060    5.2180 C.3   164  GLU164      0.0429
    117  CG        70.0780   -6.7820    5.0710 C.3   164  GLU164      0.1163
    118  CD        68.8310   -6.5970    4.2410 C.2   164  GLU164      0.3649
    119  OE1       68.9520   -6.5050    3.0010 O.co2 164  GLU164     -0.2457
    120  OE2       67.7310   -6.5410    4.8310 O.co2 164  GLU164     -0.2457
    121  N         73.2780   -7.5890    4.2630 N.am  165  LEU165     -0.1964
    122  CA        74.0110   -8.0980    3.1150 C.3   165  LEU165      0.1713
    123  C         73.0660   -8.6770    2.0840 C.2   165  LEU165      0.2458
    124  O         71.9690   -9.1160    2.4180 O.2   165  LEU165     -0.2730
    125  CB        75.0420   -9.1360    3.5690 C.3   165  LEU165      0.0310
    126  CG        76.3340   -8.5210    4.1240 C.3   165  LEU165      0.0022
    127  CD1       76.0310   -7.5210    5.2180 C.3   165  LEU165      0.0001
    128  CD2       77.2220   -9.6190    4.6640 C.3   165  LEU165      0.0001
    129  N         73.4730   -8.6690    0.8050 N.am  166  PRO166     -0.2727
    130  CA        72.6250   -9.2050   -0.2610 C.3   166  PRO166      0.1402
    131  C         72.1620  -10.6250    0.0180 C.2   166  PRO166      0.2269
    132  O         71.2090  -11.1050   -0.5840 O.2   166  PRO166     -0.2865
    133  CB        73.5160   -9.1030   -1.4970 C.3   166  PRO166      0.0296
    134  CG        74.9090   -9.1780   -0.9310 C.3   166  PRO166      0.0237
    135  CD        74.7950   -8.2900    0.2750 C.3   166  PRO166      0.0939
    136  N         73.1700  -10.0950    8.0870 N.3   170  HIS170     -0.1241
    137  CA        73.4370   -8.8160    8.7150 C.3   170  HIS170      0.1621
    138  C         74.8690   -8.6080    9.1930 C.2   170  HIS170      0.2264
    139  O         75.5050   -9.5180    9.7230 O.2   170  HIS170     -0.2867
    140  CB        72.4460   -8.6220    9.8610 C.3   170  HIS170      0.0745
    141  CG        71.0270   -8.8800    9.4590 C.ar  170  HIS170      0.0817
    142  ND1       70.5340  -10.1500    9.2430 N.ar  170  HIS170     -0.2268
    143  CD2       70.0170   -8.0280    9.1650 C.ar  170  HIS170      0.1154
    144  CE1       69.2800  -10.0690    8.8350 C.ar  170  HIS170      0.1986
    145  NE2       68.9420   -8.7940    8.7790 N.ar  170  HIS170     -0.2212
    146  N         81.2360   -0.1090    6.0120 N.3   185  ASP185     -0.1225
    147  CA        79.9640    0.6040    6.0270 C.3   185  ASP185      0.1805
    148  C         79.7130    1.5050    4.8280 C.2   185  ASP185      0.2598
    149  O         79.2310    2.6260    4.9660 O.2   185  ASP185     -0.2718
    150  CB        79.8110    1.3920    7.3340 C.3   185  ASP185      0.1424
    151  CG        81.0100    2.2660    7.6480 C.2   185  ASP185      0.3668
    152  OD1       82.0960    2.0500    7.0710 O.co2 185  ASP185     -0.2456
    153  OD2       80.8630    3.1650    8.5020 O.co2 185  ASP185     -0.2456
    154  N         80.0440    1.0020    3.6450 N.am  186  ARG186     -0.1966
    155  CA        79.8190    1.7430    2.4140 C.3   186  ARG186      0.1729
    156  C         78.9040    0.8960    1.5440 C.2   186  ARG186      0.2616
    157  O         78.4190   -0.1490    1.9680 O.2   186  ARG186     -0.2715
    158  CB        81.1270    1.9900    1.6600 C.3   186  ARG186      0.0348
    159  CG        82.3830    1.7670    2.4630 C.3   186  ARG186      0.0492
    160  CD        83.6190    2.0780    1.6310 C.3   186  ARG186      0.2205
    161  NE        83.3840    1.8590    0.2060 N.pl3 186  ARG186     -0.0865
    162  CZ        84.3380    1.6030   -0.6860 C.cat 186  ARG186      0.5346
    163  NH1       85.6080    1.5200   -0.3070 N.pl3 186  ARG186      0.1354
    164  NH2       84.0220    1.4430   -1.9650 N.pl3 186  ARG186      0.1354
    165  N         78.6720    1.3490    0.3200 N.am  187  GLN187     -0.1963
    166  CA        77.8240    0.6100   -0.6010 C.3   187  GLN187      0.1733
    167  C         78.6960   -0.0490   -1.6600 C.2   187  GLN187      0.2617
    168  O         79.0500    0.5820   -2.6570 O.2   187  GLN187     -0.2715
    169  CB        76.8180    1.5510   -1.2610 C.3   187  GLN187      0.0408
    170  CG        75.4930    0.8890   -1.4910 C.3   187  GLN187      0.0908
    171  CD        75.1260    0.0210   -0.3210 C.2   187  GLN187      0.2608
    172  OE1       75.6260   -1.0940   -0.1880 O.2   187  GLN187     -0.2717
    173  NE2       74.2740    0.5370    0.5540 N.am  187  GLN187     -0.0878
    174  N         79.0380   -1.3170   -1.4500 N.am  188  THR188     -0.1937
    175  CA        79.8990   -2.0130   -2.3960 C.3   188  THR188      0.2028
    176  C         79.4380   -3.4060   -2.8120 C.2   188  THR188      0.2642
    177  O         78.2700   -3.7730   -2.6540 O.2   188  THR188     -0.2714
    178  CB        81.3400   -2.1240   -1.8470 C.3   188  THR188      0.1808
    179  OG1       81.3490   -2.9570   -0.6810 O.3   188  THR188     -0.2208
    180  CG2       81.8720   -0.7500   -1.4750 C.3   188  THR188      0.0379
    181  N         80.3890   -4.1670   -3.3500 N.am  189  ALA189     -0.1963
    182  CA        80.1550   -5.5250   -3.8300 C.3   189  ALA189      0.1728
    183  C         79.9580   -6.5030   -2.6790 C.2   189  ALA189      0.2616
    184  O         78.9760   -7.2470   -2.6480 O.2   189  ALA189     -0.2715
    185  CB        81.3320   -5.9760   -4.7020 C.3   189  ALA189      0.0334
    186  N         80.9170   -6.4850   -1.7550 N.am  190  GLN190     -0.1977
    187  CA        80.9630   -7.3260   -0.5590 C.3   190  GLN190      0.1601
    188  C         79.8070   -8.2870   -0.3060 C.2   190  GLN190      0.2287
    189  O         78.6330   -7.8980   -0.2790 O.2   190  GLN190     -0.2864
    190  CB        81.1400   -6.4490    0.6770 C.3   190  GLN190      0.0394
    191  CG        80.0220   -5.4530    0.8610 C.3   190  GLN190      0.0908
    192  CD        80.1520   -4.6710    2.1400 C.2   190  GLN190      0.2608
    193  OE1       79.3410   -3.7950    2.4250 O.2   190  GLN190     -0.2717
    194  NE2       81.1760   -4.9810    2.9250 N.am  190  GLN190     -0.0878
@<TRIPOS>BOND
     1   185   182    1
     2   182   181    1
     3   182   183    1
     4   181   176   am
     5   176   177    2
     6   176   175    1
     7   183   184    2
     8   183   186   am
     9   168   167    2
    10   175   178    1
    11   175   174    1
    12   164   162    1
    13   178   180    1
    14   178   179    1
    15   186   187    1
    16   167   174   am
    17   167   166    1
    18   133   134    1
    19   133   130    1
    20   170   169    1
    21   170   171    1
    22   169   166    1
    23   134   135    1
    24   162   163    1
    25   162   161    2
    26   166   165    1
    27   132   131    2
    28   187   188    1
    29   187   190    1
    30   171   172    2
    31   171   173   am
    32   188   189    2
    33   130   131    1
    34   130   129    1
    35    35    36    2
    36    35    34    1
    37   161   160    1
    38   135   129    1
    39   165   156   am
    40    33    34    1
    41   190   191    1
    42   129   123   am
    43   191   192    1
    44    34    37    1
    45    37    38    1
    46   156   157    2
    47   156   155    1
    48   160   159    1
    49   158   155    1
    50   158   159    1
    51   123   124    2
    52   123   122    1
    53    38    39    1
    54   192   193    2
    55   192   194   am
    56   155   154    1
    57   119   118   ar
    58   122   125    1
    59   122   121    1
    60   115   114    2
    61   125   126    1
    62   154   148   am
    63    39    40    1
    64   111   110    1
    65   126   128    1
    66   126   127    1
    67   118   120   ar
    68   118   117    1
    69   121   114   am
    70   114   113    1
    71   148   149    2
    72   148   147    1
    73    67    65   am
    74   117   116    1
    75    66    65    2
    76   116   113    1
    77   113   112    1
    78    65    64    1
    79   110   109    1
    80   112   106   am
    81   146   147    1
    82   147   150    1
    83   108   109    1
    84   108   105    1
    85     6     5    1
    86    64    61    1
    87   152   151   ar
    88   106   105    1
    89   106   107    2
    90   105   104    1
    91   150   151    1
    92   151   153   ar
    93    27    28    1
    94    27    24    1
    95     1     2    1
    96    26    25    2
    97    61    60    1
    98    61    62    1
    99   136   137    1
   100     5     2    1
   101     5     7    1
   102    59    57    1
   103    30    28   ar
   104    30    32   ar
   105    60    54   am
   106    28    29   ar
   107     2     3    1
   108    44    43    2
   109    24    25    1
   110    24    23    1
   111   104    96   am
   112   137   138    1
   113   137   140    1
   114    97    96    2
   115    54    53    1
   116    54    55    2
   117    32    31   ar
   118   145   144   ar
   119   145   143   ar
   120    53    56    1
   121    53    52    1
   122   144   142   ar
   123    29    31   ar
   124    56    57    1
   125   143   141   ar
   126   138   139    2
   127    96    95    1
   128   142   141   ar
   129    62    68   am
   130    62    63    2
   131    57    58    1
   132   141   140    1
   133    68    69    1
   134    43    52   am
   135    43    42    1
   136     3     8   am
   137     3     4    2
   138    83    82    1
   139     8     9    1
   140    93    92   ar
   141    93    91   ar
   142    98    95    1
   143    98    99    1
   144    92    90   ar
   145    95    94    1
   146    69    70    1
   147    41    42    1
   148    42    45    1
   149    45    46    1
   150    11    10    2
   151    13    12    1
   152     9    12    1
   153     9    10    1
   154    91    89   ar
   155    82    79    1
   156    94    86   am
   157   100    99   ar
   158   100   102   ar
   159    99   101   ar
   160    90    89   ar
   161    77    76    1
   162    12    14    1
   163    10    15   am
   164    72    70   am
   165    72    73    1
   166    22    20    1
   167    70    71    2
   168    47    46   ar
   169    47    49   ar
   170    46    48   ar
   171    89    88    1
   172    78    79    1
   173    78    74   am
   174    79    80    1
   175    20    19    1
   176    20    21    1
   177    86    87    2
   178    86    85    1
   179    19    16    1
   180    76    73    1
   181   102   103   ar
   182   101   103   ar
   183    73    74    1
   184    15    16    1
   185    49    51   ar
   186    74    75    2
   187    48    50   ar
   188    16    17    1
   189    88    85    1
   190    85    84    1
   191    80    81    2
   192    51    50   ar
   193    17    18    2
