@<TRIPOS>MOLECULE
tmp/1uk4B00.pdb
 158 153 0 0 0
SMALL
GASTEIGER

@<TRIPOS>ATOM
      1  N         56.3310  -22.8200   50.6930 N.3    25  THR25      -0.1203
      2  CA        56.0710  -22.6930   49.2550 C.3    25  THR25       0.1994
      3  C         56.3800  -21.3110   48.6700 C.2    25  THR25       0.2619
      4  O         55.7780  -20.3220   49.0760 O.2    25  THR25      -0.2717
      5  CB        54.5880  -23.0140   48.9160 C.3    25  THR25       0.1784
      6  OG1       54.2630  -24.3350   49.3650 O.3    25  THR25      -0.2211
      7  CG2       54.3440  -22.9040   47.4010 C.3    25  THR25       0.0376
      8  N         57.2920  -21.2580   47.6980 N.am   26  THR26      -0.1938
      9  CA        57.6590  -20.0010   47.0440 C.3    26  THR26       0.2028
     10  C         57.5490  -20.0420   45.5190 C.2    26  THR26       0.2642
     11  O         58.0100  -20.9880   44.8810 O.2    26  THR26      -0.2714
     12  CB        59.1060  -19.5830   47.3870 C.3    26  THR26       0.1808
     13  OG1       59.1950  -19.2460   48.7730 O.3    26  THR26      -0.2208
     14  CG2       59.5140  -18.3730   46.5880 C.3    26  THR26       0.0379
     15  N         56.9330  -19.0100   44.9420 N.am   27  LEU27      -0.1977
     16  CA        56.7850  -18.8850   43.4870 C.3    27  LEU27       0.1596
     17  C         56.6720  -17.4120   43.0870 C.2    27  LEU27       0.2287
     18  O         56.7930  -16.5250   43.9280 O.2    27  LEU27      -0.2864
     19  CB        55.5740  -19.6850   42.9910 C.3    27  LEU27       0.0297
     20  CG        54.3070  -19.6800   43.8360 C.3    27  LEU27       0.0022
     21  CD1       53.6660  -18.2990   43.8310 C.3    27  LEU27       0.0001
     22  CD2       53.3570  -20.7290   43.3010 C.3    27  LEU27       0.0001
     23  N         47.8680  -22.0810   44.5490 N.3    41  HIS41      -0.1241
     24  CA        48.4740  -23.2700   45.1470 C.3    41  HIS41       0.1621
     25  C         49.7220  -22.9640   45.9540 C.2    41  HIS41       0.2264
     26  O         50.3390  -23.8670   46.5250 O.2    41  HIS41      -0.2867
     27  CB        48.7550  -24.3550   44.0930 C.3    41  HIS41       0.0745
     28  CG        49.8990  -24.0590   43.1760 C.ar   41  HIS41       0.0817
     29  ND1       49.7340  -23.8800   41.8190 N.ar   41  HIS41      -0.2268
     30  CD2       51.2360  -24.0160   43.4010 C.ar   41  HIS41       0.1154
     31  CE1       50.9170  -23.7460   41.2440 C.ar   41  HIS41       0.1986
     32  NE2       51.8440  -23.8260   42.1830 N.ar   41  HIS41      -0.2212
     33  N         49.5610  -24.2890   49.2800 N.3    44  CYS44      -0.1235
     34  CA        49.5340  -25.7370   49.4520 C.3    44  CYS44       0.1677
     35  C         50.8750  -26.3150   49.9060 C.2    44  CYS44       0.2270
     36  O         51.9190  -26.0250   49.3190 O.2    44  CYS44      -0.2867
     37  CB        49.1360  -26.4310   48.1440 C.3    44  CYS44       0.0956
     38  SG        47.4200  -26.2510   47.6420 S.3    44  CYS44      -0.0801
     39  N         53.3240  -29.5640   50.2800 N.3    46  ALA46      -0.1245
     40  CA        53.4660  -30.7020   49.3720 C.3    46  ALA46       0.1562
     41  C         52.3020  -31.6890   49.4480 C.2    46  ALA46       0.2260
     42  O         51.6750  -31.9960   48.4350 O.2    46  ALA46      -0.2867
     43  CB        54.7750  -31.4230   49.6450 C.3    46  ALA46       0.0290
     44  N         48.7390  -30.9390   48.0350 N.3    49  MET49      -0.1245
     45  CA        48.6630  -31.0000   46.5790 C.3    49  MET49       0.1570
     46  C         48.0220  -32.2210   45.9290 C.2    49  MET49       0.2261
     47  O         47.7530  -32.2100   44.7260 O.2    49  MET49      -0.2867
     48  CB        50.0550  -30.7990   45.9710 C.3    49  MET49       0.0387
     49  CG        50.6110  -29.3800   46.0780 C.3    49  MET49       0.0595
     50  SD        49.6840  -28.0520   45.2230 S.3    49  MET49      -0.1393
     51  CE        48.2920  -28.9260   44.4710 C.3    49  MET49       0.0692
     52  N         59.9630  -24.6140   37.7570 N.3   143  GLY143     -0.1210
     53  CA        59.9410  -24.0130   39.0790 C.3   143  GLY143      0.1956
     54  C         59.6110  -22.5390   38.9650 C.2   143  GLY143      0.2613
     55  O         59.8550  -21.7500   39.8770 O.2   143  GLY143     -0.2717
     56  N         59.0320  -22.1750   37.8270 N.am  144  SER144     -0.1938
     57  CA        58.6740  -20.7910   37.5440 C.3   144  SER144      0.2055
     58  C         57.1830  -20.4550   37.6330 C.2   144  SER144      0.2643
     59  O         56.7350  -19.5110   36.9900 O.2   144  SER144     -0.2714
     60  CB        59.1810  -20.4220   36.1500 C.3   144  SER144      0.2130
     61  OG        58.6270  -21.2910   35.1800 O.3   144  SER144     -0.2179
     62  N         56.4110  -21.2040   38.4160 N.am  145  CYS145     -0.1967
     63  CA        54.9880  -20.8950   38.5340 C.3   145  CYS145      0.1712
     64  C         54.8310  -19.4240   38.8950 C.2   145  CYS145      0.2296
     65  O         55.6520  -18.8530   39.6270 O.2   145  CYS145     -0.2864
     66  CB        54.3070  -21.7750   39.5910 C.3   145  CYS145      0.0983
     67  SG        53.8050  -23.4090   38.9770 S.3   145  CYS145     -0.0798
     68  N         51.0600  -22.4250   35.8750 N.3   164  HIS164     -0.1226
     69  CA        50.5580  -23.1470   37.0400 C.3   164  HIS164      0.1752
     70  C         51.0680  -24.5950   37.1850 C.2   164  HIS164      0.2596
     71  O         51.3480  -25.0260   38.3040 O.2   164  HIS164     -0.2718
     72  CB        49.0170  -23.2140   37.0010 C.3   164  HIS164      0.0759
     73  CG        48.3160  -21.9840   37.4860 C.ar  164  HIS164      0.0818
     74  ND1       47.6810  -21.9180   38.7050 N.ar  164  HIS164     -0.2268
     75  CD2       48.0990  -20.7810   36.8880 C.ar  164  HIS164      0.1154
     76  CE1       47.0960  -20.7370   38.8440 C.ar  164  HIS164      0.1986
     77  NE2       47.3380  -20.0320   37.7510 N.ar  164  HIS164     -0.2212
     78  N         51.1670  -25.3450   36.0780 N.am  165  MET165     -0.1965
     79  CA        51.5780  -26.7590   36.1360 C.3   165  MET165      0.1736
     80  C         52.5160  -27.3380   35.0770 C.2   165  MET165      0.2616
     81  O         52.6580  -26.7950   33.9870 O.2   165  MET165     -0.2715
     82  CB        50.3490  -27.6580   36.1440 C.3   165  MET165      0.0427
     83  CG        49.5140  -27.5980   37.3830 C.3   165  MET165      0.0599
     84  SD        48.6420  -29.1650   37.5770 S.3   165  MET165     -0.1393
     85  CE        47.6180  -29.1540   36.0830 C.3   165  MET165      0.0692
     86  N         53.1020  -28.4900   35.4170 N.am  166  GLU166     -0.1963
     87  CA        54.0350  -29.2230   34.5570 C.3   166  GLU166      0.1733
     88  C         53.4850  -30.5250   33.9790 C.2   166  GLU166      0.2616
     89  O         54.2250  -31.4990   33.8450 O.2   166  GLU166     -0.2715
     90  CB        55.3220  -29.5620   35.3150 C.3   166  GLU166      0.0429
     91  CG        56.4340  -28.5520   35.1650 C.3   166  GLU166      0.1163
     92  CD        56.0880  -27.2000   35.7640 C.2   166  GLU166      0.3649
     93  OE1       55.7610  -27.1310   36.9730 O.co2 166  GLU166     -0.2457
     94  OE2       56.1470  -26.2010   35.0220 O.co2 166  GLU166     -0.2457
     95  N         52.1990  -30.5430   33.6500 N.am  167  LEU167     -0.1964
     96  CA        51.5350  -31.7090   33.0610 C.3   167  LEU167      0.1713
     97  C         52.5000  -32.8010   32.5890 C.2   167  LEU167      0.2458
     98  O         53.1060  -32.6690   31.5270 O.2   167  LEU167     -0.2730
     99  CB        50.7080  -31.2490   31.8650 C.3   167  LEU167      0.0310
    100  CG        49.2480  -31.6490   31.7230 C.3   167  LEU167      0.0022
    101  CD1       48.4230  -31.2680   32.9510 C.3   167  LEU167      0.0001
    102  CD2       48.7340  -30.9410   30.4910 C.3   167  LEU167      0.0001
    103  N         52.6670  -33.8840   33.3720 N.am  168  PRO168     -0.2727
    104  CA        53.5680  -34.9760   32.9920 C.3   168  PRO168      0.1402
    105  C         53.1920  -35.6000   31.6580 C.2   168  PRO168      0.2269
    106  O         52.4130  -36.5480   31.5860 O.2   168  PRO168     -0.2865
    107  CB        53.4370  -35.9470   34.1560 C.3   168  PRO168      0.0296
    108  CG        53.2660  -35.0150   35.3090 C.3   168  PRO168      0.0237
    109  CD        52.2310  -34.0520   34.7650 C.3   168  PRO168      0.0939
    110  N         44.1390  -27.4690   39.4330 N.3   187  ASP187     -0.1225
    111  CA        45.2210  -27.2450   40.4090 C.3   187  ASP187      0.1805
    112  C         45.4500  -28.4800   41.2570 C.2   187  ASP187      0.2598
    113  O         45.2160  -28.4280   42.4630 O.2   187  ASP187     -0.2718
    114  CB        44.8440  -26.1550   41.4160 C.3   187  ASP187      0.1424
    115  CG        44.6390  -24.8150   40.7970 C.2   187  ASP187      0.3668
    116  OD1       43.8060  -24.0540   41.3320 O.co2 187  ASP187     -0.2456
    117  OD2       45.3190  -24.5080   39.7990 O.co2 187  ASP187     -0.2456
    118  N         45.9120  -29.5780   40.6850 N.am  188  ARG188     -0.1966
    119  CA        46.0800  -30.7510   41.5240 C.3   188  ARG188      0.1729
    120  C         47.1380  -31.7130   41.0300 C.2   188  ARG188      0.2616
    121  O         47.3060  -31.8910   39.8310 O.2   188  ARG188     -0.2715
    122  CB        44.7260  -31.4570   41.6470 C.3   188  ARG188      0.0348
    123  CG        44.6910  -32.6060   42.6190 C.3   188  ARG188      0.0492
    124  CD        43.3040  -33.2170   42.6830 C.3   188  ARG188      0.2205
    125  NE        43.3570  -34.5030   43.3660 N.pl3 188  ARG188     -0.0865
    126  CZ        42.3290  -35.3290   43.5120 C.cat 188  ARG188      0.5346
    127  NH1       41.1390  -35.0100   43.0260 N.pl3 188  ARG188      0.1354
    128  NH2       42.5010  -36.4910   44.1310 N.pl3 188  ARG188      0.1354
    129  N         47.8470  -32.3310   41.9690 N.am  189  GLN189     -0.1963
    130  CA        48.9010  -33.2890   41.6470 C.3   189  GLN189      0.1733
    131  C         48.3290  -34.6360   41.2090 C.2   189  GLN189      0.2617
    132  O         48.7740  -35.6830   41.6800 O.2   189  GLN189     -0.2715
    133  CB        49.8120  -33.5100   42.8610 C.3   189  GLN189      0.0408
    134  CG        50.7640  -32.3660   43.1840 C.3   189  GLN189      0.0908
    135  CD        51.9260  -32.2760   42.2150 C.2   189  GLN189      0.2608
    136  OE1       52.5340  -33.2880   41.8660 O.2   189  GLN189     -0.2717
    137  NE2       52.2500  -31.0610   41.7850 N.am  189  GLN189     -0.0878
    138  N         47.3520  -34.6170   40.3100 N.am  190  THR190     -0.1937
    139  CA        46.7500  -35.8580   39.8410 C.3   190  THR190      0.2028
    140  C         46.8880  -36.0700   38.3460 C.2   190  THR190      0.2642
    141  O         46.5160  -35.2080   37.5520 O.2   190  THR190     -0.2714
    142  CB        45.2710  -35.9130   40.1880 C.3   190  THR190      0.1808
    143  OG1       44.6170  -34.7400   39.6910 O.3   190  THR190     -0.2208
    144  CG2       45.0990  -35.9990   41.6860 C.3   190  THR190      0.0379
    145  N         47.4140  -37.2320   37.9730 N.am  191  ALA191     -0.1963
    146  CA        47.6150  -37.5940   36.5750 C.3   191  ALA191      0.1728
    147  C         46.5630  -37.0100   35.6290 C.2   191  ALA191      0.2616
    148  O         45.3860  -37.3670   35.6810 O.2   191  ALA191     -0.2715
    149  CB        47.6550  -39.1150   36.4400 C.3   191  ALA191      0.0334
    150  N         47.0140  -36.1030   34.7670 N.am  192  GLN192     -0.1977
    151  CA        46.1700  -35.4430   33.7780 C.3   192  GLN192      0.1601
    152  C         46.9110  -35.5110   32.4590 C.2   192  GLN192      0.2287
    153  O         48.1360  -35.3810   32.4220 O.2   192  GLN192     -0.2864
    154  CB        45.9640  -33.9750   34.1380 C.3   192  GLN192      0.0394
    155  CG        44.9250  -33.7110   35.1860 C.3   192  GLN192      0.0908
    156  CD        45.0560  -32.3220   35.7610 C.2   192  GLN192      0.2608
    157  OE1       45.8790  -32.0790   36.6420 O.2   192  GLN192     -0.2717
    158  NE2       44.2570  -31.3930   35.2470 N.am  192  GLN192     -0.0878
@<TRIPOS>BOND
     1   102   100    1
     2    98    97    2
     3   106   105    2
     4   105   104    1
     5   100    99    1
     6   100   101    1
     7    99    96    1
     8   153   152    2
     9   152   151    1
    10    97    96    1
    11    97   103   am
    12   104   103    1
    13   104   107    1
    14    96    95    1
    15   103   109    1
    16    95    88   am
    17   151   154    1
    18   151   150    1
    19    89    88    2
    20    88    87    1
    21    81    80    2
    22   154   155    1
    23   107   108    1
    24    87    90    1
    25    87    86    1
    26   109   108    1
    27   150   147   am
    28    94    92   ar
    29    80    86   am
    30    80    79    1
    31    91    90    1
    32    91    92    1
    33    61    60    1
    34   155   156    1
    35   158   156   am
    36   147   148    2
    37   147   146    1
    38   156   157    2
    39    92    93   ar
    40    68    69    1
    41    78    79    1
    42    78    70   am
    43    85    84    1
    44    79    82    1
    45    82    83    1
    46    60    57    1
    47   149   146    1
    48   146   145    1
    49    75    73   ar
    50    75    77   ar
    51    59    58    2
    52    72    69    1
    53    72    73    1
    54    69    70    1
    55    70    71    2
    56    83    84    1
    57    73    74   ar
    58    57    58    1
    59    57    56    1
    60   141   140    2
    61    58    62   am
    62    77    76   ar
    63    52    53    1
    64    56    54   am
    65   145   140   am
    66   140   139    1
    67    62    63    1
    68    63    64    1
    69    63    66    1
    70    74    76   ar
    71    64    65    2
    72    54    53    1
    73    54    55    2
    74    67    66    1
    75   110   111    1
    76   143   142    1
    77   117   115   ar
    78   121   120    2
    79   139   142    1
    80   139   138    1
    81   142   144    1
    82   138   131   am
    83   111   112    1
    84   111   114    1
    85   118   112   am
    86   118   119    1
    87   115   116   ar
    88   115   114    1
    89   120   119    1
    90   120   129   am
    91   131   130    1
    92   131   132    2
    93    31    29   ar
    94    31    32   ar
    95   112   113    2
    96   119   122    1
    97   130   129    1
    98   130   133    1
    99   122   123    1
   100   137   135   am
   101    29    28   ar
   102   136   135    2
   103    32    30   ar
   104   135   134    1
   105   123   124    1
   106   124   125    1
   107   133   134    1
   108    19    16    1
   109    19    20    1
   110   127   126    1
   111    17    16    1
   112    17    18    2
   113    28    30   ar
   114    28    27    1
   115    22    20    1
   116   125   126    2
   117    16    15    1
   118   126   128    1
   119    21    20    1
   120    27    24    1
   121    51    50    1
   122    23    24    1
   123    47    46    2
   124    11    10    2
   125    15    10   am
   126    24    25    1
   127    50    49    1
   128    10     9    1
   129    46    45    1
   130    25    26    2
   131    48    49    1
   132    48    45    1
   133    45    44    1
   134    14    12    1
   135     9    12    1
   136     9     8    1
   137    12    13    1
   138     7     5    1
   139    38    37    1
   140     8     3   am
   141    37    34    1
   142    42    41    2
   143     3     4    2
   144     3     2    1
   145     5     2    1
   146     5     6    1
   147     2     1    1
   148    33    34    1
   149    36    35    2
   150    40    41    1
   151    40    43    1
   152    40    39    1
   153    34    35    1
