@<TRIPOS>MOLECULE
tmp/1uk8A00.pdb
 122 117 0 0 0
SMALL
GASTEIGER

@<TRIPOS>ATOM
      1  N         14.6570   37.7610   -5.9970 N.3    31  GLY31      -0.1210
      2  CA        13.2180   37.8290   -6.2050 C.3    31  GLY31       0.1956
      3  C         12.6290   36.5210   -6.7070 C.2    31  GLY31       0.2612
      4  O         13.3050   35.4920   -6.6990 O.2    31  GLY31      -0.2717
      5  N         11.3810   36.5560   -7.1740 N.am   32  SER32      -0.1952
      6  CA        10.7180   35.3340   -7.6300 C.3    32  SER32       0.1924
      7  C         10.2160   35.2860   -9.0740 C.2    32  SER32       0.2314
      8  O          9.1450   34.7370   -9.3430 O.2    32  SER32      -0.2863
      9  CB         9.5520   35.0000   -6.6930 C.3    32  SER32       0.2116
     10  OG         8.5700   36.0260   -6.7040 O.3    32  SER32      -0.2180
     11  N         12.1560   42.0870   -3.4310 N.3   101  ALA101     -0.1231
     12  CA        10.7770   41.6570   -3.6680 C.3   101  ALA101      0.1694
     13  C         10.4320   40.4320   -2.8250 C.2   101  ALA101      0.2592
     14  O         10.2970   40.5350   -1.6110 O.2   101  ALA101     -0.2718
     15  CB        10.5960   41.3610   -5.1470 C.3   101  ALA101      0.0304
     16  N         10.2610   39.2850   -3.4770 N.am  102  PHE102     -0.1976
     17  CA         9.9850   38.0250   -2.7830 C.3   102  PHE102      0.1639
     18  C         10.9810   37.9000   -1.6250 C.2   102  PHE102      0.2290
     19  O         10.6040   37.5890   -0.4930 O.2   102  PHE102     -0.2864
     20  CB        10.1620   36.8700   -3.7840 C.3   102  PHE102      0.0560
     21  CG        10.3690   35.5100   -3.1610 C.ar  102  PHE102     -0.0200
     22  CD1        9.3080   34.8080   -2.5920 C.ar  102  PHE102     -0.0042
     23  CD2       11.6200   34.9010   -3.2120 C.ar  102  PHE102     -0.0042
     24  CE1        9.4910   33.5150   -2.0920 C.ar  102  PHE102     -0.0003
     25  CE2       11.8150   33.6070   -2.7150 C.ar  102  PHE102     -0.0003
     26  CZ        10.7470   32.9140   -2.1560 C.ar  102  PHE102     -0.0000
     27  N          8.1200   42.2620   -0.7250 N.3   127  ALA127     -0.1245
     28  CA         6.8930   41.5990   -0.3280 C.3   127  ALA127      0.1562
     29  C          6.9520   41.8450    1.1800 C.2   127  ALA127      0.2260
     30  O          7.9740   42.3120    1.6880 O.2   127  ALA127     -0.2867
     31  CB         6.9820   40.1050   -0.6230 C.3   127  ALA127      0.0290
     32  N         -0.8260   43.7020   -0.3730 N.3   131  PHE131     -0.1241
     33  CA        -1.1840   44.6920   -1.3750 C.3   131  PHE131      0.1605
     34  C         -2.0020   43.9430   -2.4160 C.2   131  PHE131      0.2264
     35  O         -1.8490   42.7290   -2.5710 O.2   131  PHE131     -0.2867
     36  CB         0.0690   45.3300   -1.9990 C.3   131  PHE131      0.0534
     37  CG         0.9830   44.3570   -2.6930 C.ar  131  PHE131     -0.0203
     38  CD1        0.7760   44.0080   -4.0260 C.ar  131  PHE131     -0.0042
     39  CD2        2.0620   43.8010   -2.0160 C.ar  131  PHE131     -0.0042
     40  CE1        1.6380   43.1190   -4.6770 C.ar  131  PHE131     -0.0003
     41  CE2        2.9260   42.9140   -2.6510 C.ar  131  PHE131     -0.0003
     42  CZ         2.7150   42.5720   -3.9860 C.ar  131  PHE131     -0.0000
     43  N          2.3970   41.6170  -11.5920 N.3   137  LEU137     -0.1245
     44  CA         2.7410   40.4390  -10.8090 C.3   137  LEU137      0.1561
     45  C          2.0260   39.1980  -11.3300 C.2   137  LEU137      0.2260
     46  O          2.6140   38.1190  -11.3980 O.2   137  LEU137     -0.2867
     47  CB         2.3920   40.6560   -9.3360 C.3   137  LEU137      0.0270
     48  CG         2.6850   39.4640   -8.4170 C.3   137  LEU137      0.0019
     49  CD1        4.1500   39.0440   -8.5420 C.3   137  LEU137      0.0001
     50  CD2        2.3530   39.8460   -6.9770 C.3   137  LEU137      0.0001
     51  N          3.9470   38.0500  -14.2410 N.3   140  VAL140     -0.1231
     52  CA         5.2250   37.4770  -13.8430 C.3   140  VAL140      0.1692
     53  C          5.0630   36.0580  -13.3020 C.2   140  VAL140      0.2592
     54  O          5.7270   35.1280  -13.7640 O.2   140  VAL140     -0.2718
     55  CB         5.9170   38.3650  -12.7750 C.3   140  VAL140      0.0266
     56  CG1        7.1530   37.6670  -12.2200 C.3   140  VAL140      0.0020
     57  CG2        6.3070   39.7060  -13.3980 C.3   140  VAL140      0.0020
     58  N          4.1700   35.8850  -12.3340 N.am  141  TRP141     -0.1976
     59  CA         3.9510   34.5680  -11.7500 C.3   141  TRP141      0.1640
     60  C          3.1800   33.6270  -12.6730 C.2   141  TRP141      0.2290
     61  O          3.2300   32.4090  -12.5030 O.2   141  TRP141     -0.2864
     62  CB         3.2290   34.6970  -10.4030 C.3   141  TRP141      0.0576
     63  CG         4.1290   35.1080   -9.2620 C.ar  141  TRP141      0.0006
     64  CD1        5.4970   35.1220   -9.2570 C.ar  141  TRP141      0.0946
     65  CD2        3.7210   35.4830   -7.9380 C.ar  141  TRP141      0.0152
     66  NE1        5.9650   35.4780   -8.0110 N.ar  141  TRP141     -0.2442
     67  CE2        4.8980   35.7030   -7.1830 C.ar  141  TRP141      0.0810
     68  CE3        2.4750   35.6510   -7.3160 C.ar  141  TRP141      0.0012
     69  CZ2        4.8660   36.0810   -5.8350 C.ar  141  TRP141      0.0191
     70  CZ3        2.4430   36.0280   -5.9720 C.ar  141  TRP141      0.0001
     71  CH2        3.6350   36.2380   -5.2490 C.ar  141  TRP141      0.0015
     72  N          9.3020   44.7140  -15.7210 N.3   157  PHE157     -0.1241
     73  CA        10.3040   44.8930  -14.6700 C.3   157  PHE157      0.1605
     74  C         11.0750   46.2050  -14.6960 C.2   157  PHE157      0.2264
     75  O         11.4700   46.7160  -13.6460 O.2   157  PHE157     -0.2867
     76  CB        11.3300   43.7610  -14.7250 C.3   157  PHE157      0.0534
     77  CG        11.0990   42.6740  -13.7190 C.ar  157  PHE157     -0.0203
     78  CD1        9.8970   41.9750  -13.6860 C.ar  157  PHE157     -0.0042
     79  CD2       12.1030   42.3270  -12.8210 C.ar  157  PHE157     -0.0042
     80  CE1        9.7000   40.9460  -12.7740 C.ar  157  PHE157     -0.0003
     81  CE2       11.9170   41.2980  -11.9040 C.ar  157  PHE157     -0.0003
     82  CZ        10.7140   40.6050  -11.8800 C.ar  157  PHE157     -0.0000
     83  N          0.6580   36.5520   -2.1080 N.3   197  ILE197     -0.1245
     84  CA         1.0940   37.8700   -1.6580 C.3   197  ILE197      0.1561
     85  C          0.8260   37.8860   -0.1520 C.2   197  ILE197      0.2260
     86  O          1.6780   38.2810    0.6490 O.2   197  ILE197     -0.2867
     87  CB         0.2640   39.0000   -2.3120 C.3   197  ILE197      0.0252
     88  CG1        0.5690   39.0700   -3.8100 C.3   197  ILE197      0.0019
     89  CG2        0.5550   40.3330   -1.6230 C.3   197  ILE197      0.0019
     90  CD1       -0.2980   40.0600   -4.5630 C.3   197  ILE197      0.0001
     91  N          3.1680   35.6020    1.9410 N.3   200  LEU200     -0.1245
     92  CA         4.5160   36.1450    2.0720 C.3   200  LEU200      0.1561
     93  C          4.5520   37.3660    2.9770 C.2   200  LEU200      0.2260
     94  O          5.6220   37.7910    3.4140 O.2   200  LEU200     -0.2867
     95  CB         5.0730   36.5180    0.6960 C.3   200  LEU200      0.0270
     96  CG         5.4290   35.3430   -0.2180 C.3   200  LEU200      0.0019
     97  CD1        5.7070   35.8530   -1.6240 C.3   200  LEU200      0.0001
     98  CD2        6.6380   34.6020    0.3440 C.3   200  LEU200      0.0001
     99  N          5.2210   45.8310  -10.6850 N.3   224  VAL224     -0.1231
    100  CA         4.9940   44.5440  -10.0350 C.3   224  VAL224      0.1692
    101  C          4.4970   44.7140   -8.6030 C.2   224  VAL224      0.2591
    102  O          3.4310   44.2120   -8.2450 O.2   224  VAL224     -0.2718
    103  CB         6.2890   43.7090  -10.0570 C.3   224  VAL224      0.0266
    104  CG1        6.0310   42.3170   -9.5030 C.3   224  VAL224      0.0020
    105  CG2        6.8180   43.6260  -11.4860 C.3   224  VAL224      0.0020
    106  N          5.2790   45.4040   -7.7810 N.am  225  VAL225     -0.1980
    107  CA         4.8850   45.6770   -6.4040 C.3   225  VAL225      0.1595
    108  C          4.6740   47.1900   -6.3590 C.2   225  VAL225      0.2287
    109  O          5.5800   47.9590   -6.6850 O.2   225  VAL225     -0.2864
    110  CB         5.9860   45.2770   -5.3950 C.3   225  VAL225      0.0276
    111  CG1        5.5590   45.6650   -3.9810 C.3   225  VAL225      0.0022
    112  CG2        6.2450   43.7720   -5.4710 C.3   225  VAL225      0.0022
    113  N         10.9900   47.8410  -11.1440 N.3   250  HIS250     -0.1241
    114  CA        11.1280   46.7670  -10.1600 C.3   250  HIS250      0.1621
    115  C         12.5320   46.1500  -10.1530 C.2   250  HIS250      0.2264
    116  O         12.7880   45.1840   -9.4330 O.2   250  HIS250     -0.2867
    117  CB        10.0810   45.6900  -10.4960 C.3   250  HIS250      0.0745
    118  CG         9.8670   44.6690   -9.4220 C.ar  250  HIS250      0.0817
    119  ND1        9.4640   44.9990   -8.1460 N.ar  250  HIS250     -0.2268
    120  CD2        9.9300   43.3160   -9.4580 C.ar  250  HIS250      0.1154
    121  CE1        9.2840   43.8940   -7.4430 C.ar  250  HIS250      0.1986
    122  NE2        9.5590   42.8590   -8.2160 N.ar  250  HIS250     -0.2212
@<TRIPOS>BOND
     1    72    73    1
     2    76    73    1
     3    76    77    1
     4    74    73    1
     5    74    75    2
     6    51    52    1
     7    52    53    1
     8    52    55    1
     9    54    53    2
    10    77    78   ar
    11    77    79   ar
    12    78    80   ar
    13    57    55    1
    14    53    58   am
    15    79    81   ar
    16    55    56    1
    17    80    82   ar
    18    60    61    2
    19    60    59    1
    20    58    59    1
    21    81    82   ar
    22    59    62    1
    23    43    44    1
    24   105   103    1
    25    46    45    2
    26    45    44    1
    27   113   114    1
    28    44    47    1
    29    99   100    1
    30   117   114    1
    31   117   118    1
    32    62    63    1
    33   114   115    1
    34   115   116    2
    35   103   100    1
    36   103   104    1
    37   100   101    1
    38   120   118   ar
    39   120   122   ar
    40   118   119   ar
    41     8     7    2
    42    47    48    1
    43    63    64   ar
    44    63    65   ar
    45    64    66   ar
    46     7     6    1
    47   101   102    2
    48   101   106   am
    49    49    48    1
    50    48    50    1
    51   122   121   ar
    52   119   121   ar
    53    66    67   ar
    54    65    68   ar
    55    65    67   ar
    56   106   107    1
    57     6     5    1
    58     6     9    1
    59    68    70   ar
    60    67    69   ar
    61     5     3   am
    62     3     4    2
    63     3     2    1
    64    10     9    1
    65   109   108    2
    66   107   108    1
    67   107   110    1
    68     2     1    1
    69    70    71   ar
    70    69    71   ar
    71   112   110    1
    72   110   111    1
    73    15    12    1
    74    40    38   ar
    75    40    42   ar
    76    90    88    1
    77    38    37   ar
    78    42    41   ar
    79    88    87    1
    80    20    21    1
    81    20    17    1
    82    12    11    1
    83    12    13    1
    84    16    13   am
    85    16    17    1
    86    23    21   ar
    87    23    25   ar
    88    21    22   ar
    89    13    14    2
    90    17    18    1
    91    25    26   ar
    92    37    39   ar
    93    37    36    1
    94    41    39   ar
    95    22    24   ar
    96    35    34    2
    97    34    33    1
    98    87    84    1
    99    87    89    1
   100    26    24   ar
   101    83    84    1
   102    36    33    1
   103    84    85    1
   104    18    19    2
   105    97    96    1
   106    33    32    1
   107    27    28    1
   108    31    28    1
   109    28    29    1
   110    96    98    1
   111    96    95    1
   112    85    86    2
   113    95    92    1
   114    29    30    2
   115    91    92    1
   116    92    93    1
   117    93    94    2
