@<TRIPOS>MOLECULE
tmp/1uk9A00.pdb
 136 132 0 0 0
SMALL
GASTEIGER

@<TRIPOS>ATOM
      1  N         11.6290   36.8790   -7.0690 N.3    32  SER32      -0.1217
      2  CA        11.0390   35.7210   -7.7150 C.3    32  SER32       0.1889
      3  C         10.7510   36.1010   -9.1570 C.2    32  SER32       0.2288
      4  O         10.6080   37.2780   -9.4920 O.2    32  SER32      -0.2866
      5  CB         9.7510   35.2680   -7.0030 C.3    32  SER32       0.2089
      6  OG         8.7190   36.2400   -7.0750 O.3    32  SER32      -0.2183
      7  N         12.4470   42.2310   -3.5810 N.3   101  ALA101     -0.1231
      8  CA        11.0890   41.8000   -3.8970 C.3   101  ALA101      0.1694
      9  C         10.6770   40.6320   -3.0090 C.2   101  ALA101      0.2592
     10  O         10.5320   40.7910   -1.8000 O.2   101  ALA101     -0.2718
     11  CB        11.0110   41.4080   -5.3630 C.3   101  ALA101      0.0304
     12  N         10.4750   39.4680   -3.6200 N.am  102  PHE102     -0.1976
     13  CA        10.1110   38.2470   -2.8960 C.3   102  PHE102      0.1639
     14  C         11.0860   38.0940   -1.7230 C.2   102  PHE102      0.2290
     15  O         10.6840   37.8250   -0.5860 O.2   102  PHE102     -0.2864
     16  CB        10.2050   37.0800   -3.8970 C.3   102  PHE102      0.0560
     17  CG        10.5110   35.7350   -3.2990 C.ar  102  PHE102     -0.0200
     18  CD1        9.5260   34.9950   -2.6540 C.ar  102  PHE102     -0.0042
     19  CD2       11.7680   35.1620   -3.4800 C.ar  102  PHE102     -0.0042
     20  CE1        9.7830   33.7000   -2.2080 C.ar  102  PHE102     -0.0003
     21  CE2       12.0360   33.8640   -3.0360 C.ar  102  PHE102     -0.0003
     22  CZ        11.0410   33.1340   -2.4020 C.ar  102  PHE102     -0.0000
     23  N         11.4950   47.0350   -3.3070 N.3   125  GLY125     -0.1225
     24  CA        10.2350   46.6830   -3.9650 C.3   125  GLY125      0.1811
     25  C          9.7500   45.3910   -3.3440 C.2   125  GLY125      0.2280
     26  O          9.2310   44.4930   -4.0110 O.2   125  GLY125     -0.2866
     27  N          8.1410   42.3430   -0.8330 N.3   127  ALA127     -0.1245
     28  CA         6.9120   41.6800   -0.4530 C.3   127  ALA127      0.1562
     29  C          6.9600   41.9420    1.0570 C.2   127  ALA127      0.2260
     30  O          7.9990   42.3670    1.5770 O.2   127  ALA127     -0.2867
     31  CB         7.0050   40.1850   -0.7410 C.3   127  ALA127      0.0290
     32  N         -0.5840   43.9110   -0.3980 N.3   131  PHE131     -0.1241
     33  CA        -1.0440   44.7990   -1.4570 C.3   131  PHE131      0.1605
     34  C         -1.8960   44.0200   -2.4530 C.2   131  PHE131      0.2264
     35  O         -1.7620   42.8010   -2.5680 O.2   131  PHE131     -0.2867
     36  CB         0.1580   45.4450   -2.1570 C.3   131  PHE131      0.0534
     37  CG         1.0700   44.4650   -2.8420 C.ar  131  PHE131     -0.0203
     38  CD1        0.8900   44.1450   -4.1860 C.ar  131  PHE131     -0.0042
     39  CD2        2.1140   43.8650   -2.1440 C.ar  131  PHE131     -0.0042
     40  CE1        1.7390   43.2410   -4.8270 C.ar  131  PHE131     -0.0003
     41  CE2        2.9680   42.9600   -2.7730 C.ar  131  PHE131     -0.0003
     42  CZ         2.7800   42.6480   -4.1190 C.ar  131  PHE131     -0.0000
     43  N          2.4360   41.5940  -11.5700 N.3   137  LEU137     -0.1245
     44  CA         2.7800   40.4300  -10.7660 C.3   137  LEU137      0.1561
     45  C          2.1090   39.1750  -11.3090 C.2   137  LEU137      0.2260
     46  O          2.7230   38.1090  -11.3620 O.2   137  LEU137     -0.2867
     47  CB         2.3770   40.6480   -9.3050 C.3   137  LEU137      0.0270
     48  CG         2.7100   39.4820   -8.3660 C.3   137  LEU137      0.0019
     49  CD1        4.1890   39.1290   -8.5010 C.3   137  LEU137      0.0001
     50  CD2        2.3700   39.8590   -6.9280 C.3   137  LEU137      0.0001
     51  N          4.1560   38.0060  -14.2060 N.3   140  VAL140     -0.1231
     52  CA         5.4230   37.4020  -13.8090 C.3   140  VAL140      0.1692
     53  C          5.2130   35.9980  -13.2350 C.2   140  VAL140      0.2592
     54  O          5.8330   35.0370  -13.6920 O.2   140  VAL140     -0.2718
     55  CB         6.1610   38.2800  -12.7650 C.3   140  VAL140      0.0266
     56  CG1        7.4200   37.5700  -12.2730 C.3   140  VAL140      0.0020
     57  CG2        6.5330   39.6210  -13.3870 C.3   140  VAL140      0.0020
     58  N          4.3350   35.8710  -12.2440 N.am  141  TRP141     -0.1976
     59  CA         4.0830   34.5600  -11.6440 C.3   141  TRP141      0.1640
     60  C          3.3400   33.5980  -12.5790 C.2   141  TRP141      0.2290
     61  O          3.4680   32.3770  -12.4530 O.2   141  TRP141     -0.2864
     62  CB         3.3090   34.7200  -10.3260 C.3   141  TRP141      0.0576
     63  CG         4.1720   35.1560   -9.1670 C.ar  141  TRP141      0.0006
     64  CD1        5.5380   35.2310   -9.1390 C.ar  141  TRP141      0.0946
     65  CD2        3.7260   35.5030   -7.8490 C.ar  141  TRP141      0.0152
     66  NE1        5.9700   35.5960   -7.8840 N.ar  141  TRP141     -0.2442
     67  CE2        4.8790   35.7670   -7.0720 C.ar  141  TRP141      0.0810
     68  CE3        2.4630   35.6110   -7.2460 C.ar  141  TRP141      0.0012
     69  CZ2        4.8070   36.1330   -5.7230 C.ar  141  TRP141      0.0191
     70  CZ3        2.3910   35.9750   -5.9010 C.ar  141  TRP141      0.0001
     71  CH2        3.5600   36.2300   -5.1570 C.ar  141  TRP141      0.0015
     72  N          9.2950   44.9080  -15.8630 N.3   157  PHE157     -0.1241
     73  CA        10.3140   45.2150  -14.8620 C.3   157  PHE157      0.1605
     74  C         11.0480   46.5290  -15.0950 C.2   157  PHE157      0.2264
     75  O         11.4120   47.2250  -14.1460 O.2   157  PHE157     -0.2867
     76  CB        11.3660   44.1070  -14.8190 C.3   157  PHE157      0.0534
     77  CG        11.0490   42.9980  -13.8690 C.ar  157  PHE157     -0.0203
     78  CD1        9.9190   42.2130  -14.0460 C.ar  157  PHE157     -0.0042
     79  CD2       11.9000   42.7190  -12.8070 C.ar  157  PHE157     -0.0042
     80  CE1        9.6370   41.1630  -13.1780 C.ar  157  PHE157     -0.0003
     81  CE2       11.6250   41.6710  -11.9350 C.ar  157  PHE157     -0.0003
     82  CZ        10.4910   40.8920  -12.1240 C.ar  157  PHE157     -0.0000
     83  N          0.6920   36.5500   -2.1160 N.3   197  ILE197     -0.1245
     84  CA         1.1370   37.8730   -1.6900 C.3   197  ILE197      0.1561
     85  C          0.8820   37.8970   -0.1820 C.2   197  ILE197      0.2260
     86  O          1.7460   38.2730    0.6170 O.2   197  ILE197     -0.2867
     87  CB         0.2930   38.9920   -2.3500 C.3   197  ILE197      0.0252
     88  CG1        0.6340   39.0960   -3.8380 C.3   197  ILE197      0.0019
     89  CG2        0.5300   40.3210   -1.6420 C.3   197  ILE197      0.0019
     90  CD1       -0.2640   40.0530   -4.6000 C.3   197  ILE197      0.0001
     91  N          3.2330   35.6450    1.8910 N.3   200  LEU200     -0.1245
     92  CA         4.5770   36.1970    1.9940 C.3   200  LEU200      0.1561
     93  C          4.6110   37.4230    2.8950 C.2   200  LEU200      0.2260
     94  O          5.6770   37.8520    3.3280 O.2   200  LEU200     -0.2867
     95  CB         5.0980   36.5820    0.6060 C.3   200  LEU200      0.0270
     96  CG         5.5310   35.4350   -0.3090 C.3   200  LEU200      0.0019
     97  CD1        5.7910   35.9590   -1.7150 C.3   200  LEU200      0.0001
     98  CD2        6.7860   34.7800    0.2620 C.3   200  LEU200      0.0001
     99  N          5.2200   45.9790  -10.6550 N.3   224  VAL224     -0.1231
    100  CA         4.9520   44.7160   -9.9770 C.3   224  VAL224      0.1692
    101  C          4.4080   44.9300   -8.5700 C.2   224  VAL224      0.2591
    102  O          3.3700   44.3750   -8.2040 O.2   224  VAL224     -0.2718
    103  CB         6.2270   43.8530   -9.9210 C.3   224  VAL224      0.0266
    104  CG1        5.9140   42.4990   -9.3000 C.3   224  VAL224      0.0020
    105  CG2        6.7800   43.6680  -11.3300 C.3   224  VAL224      0.0020
    106  N          5.1170   45.7310   -7.7830 N.am  225  VAL225     -0.1980
    107  CA         4.6860   46.0470   -6.4270 C.3   225  VAL225      0.1595
    108  C          4.4680   47.5570   -6.3810 C.2   225  VAL225      0.2287
    109  O          5.3700   48.3270   -6.7120 O.2   225  VAL225     -0.2864
    110  CB         5.7610   45.6720   -5.3830 C.3   225  VAL225      0.0276
    111  CG1        5.2920   46.0620   -3.9850 C.3   225  VAL225      0.0022
    112  CG2        6.0460   44.1840   -5.4410 C.3   225  VAL225      0.0022
    113  N         10.9610   47.8250  -11.2610 N.3   250  HIS250     -0.1226
    114  CA        10.9710   46.8630  -10.1670 C.3   250  HIS250      0.1752
    115  C         12.3520   46.5010   -9.6260 C.2   250  HIS250      0.2596
    116  O         12.5140   46.3560   -8.4140 O.2   250  HIS250     -0.2718
    117  CB        10.2220   45.5940  -10.5840 C.3   250  HIS250      0.0759
    118  CG         9.9130   44.6720   -9.4460 C.ar  250  HIS250      0.0818
    119  ND1        9.4530   45.1230   -8.2260 N.ar  250  HIS250     -0.2268
    120  CD2        9.9400   43.3210   -9.3620 C.ar  250  HIS250      0.1154
    121  CE1        9.2060   44.0880   -7.4410 C.ar  250  HIS250      0.1986
    122  NE2        9.4920   42.9820   -8.1070 N.ar  250  HIS250     -0.2212
    123  N         13.3460   46.3630  -10.5000 N.am  251  TRP251     -0.1976
    124  CA        14.6910   46.0220  -10.0360 C.3   251  TRP251      0.1640
    125  C         15.6270   47.2190   -9.9360 C.2   251  TRP251      0.2290
    126  O         16.4050   47.5190  -10.8410 O.2   251  TRP251     -0.2864
    127  CB        15.3060   44.9240  -10.9100 C.3   251  TRP251      0.0576
    128  CG        14.8040   43.5530  -10.5410 C.ar  251  TRP251      0.0006
    129  CD1       14.0450   43.2230   -9.4520 C.ar  251  TRP251      0.0946
    130  CD2       15.0460   42.3280  -11.2450 C.ar  251  TRP251      0.0152
    131  NE1       13.7990   41.8720   -9.4340 N.ar  251  TRP251     -0.2442
    132  CE2       14.4020   41.2970  -10.5220 C.ar  251  TRP251      0.0810
    133  CE3       15.7430   42.0000  -12.4160 C.ar  251  TRP251      0.0012
    134  CZ2       14.4340   39.9590  -10.9330 C.ar  251  TRP251      0.0191
    135  CZ3       15.7740   40.6690  -12.8240 C.ar  251  TRP251      0.0001
    136  CH2       15.1220   39.6660  -12.0820 C.ar  251  TRP251      0.0015
@<TRIPOS>BOND
     1    72    73    1
     2    74    73    1
     3    74    75    2
     4    73    76    1
     5    76    77    1
     6    51    52    1
     7    78    77   ar
     8    78    80   ar
     9    77    79   ar
    10    52    53    1
    11    52    55    1
    12    54    53    2
    13    57    55    1
    14    53    58   am
    15    80    82   ar
    16   135   133   ar
    17   135   136   ar
    18    79    81   ar
    19    55    56    1
    20    60    61    2
    21    60    59    1
    22   133   130   ar
    23    58    59    1
    24    82    81   ar
    25   136   134   ar
    26    59    62    1
    27    43    44    1
    28    46    45    2
    29   105   103    1
    30    45    44    1
    31   113   114    1
    32   130   128   ar
    33   130   132   ar
    34   134   132   ar
    35   127   128    1
    36   127   124    1
    37   126   125    2
    38    44    47    1
    39    99   100    1
    40   117   114    1
    41   117   118    1
    42   128   129   ar
    43   132   131   ar
    44   123   124    1
    45   123   115   am
    46    62    63    1
    47   114   115    1
    48   124   125    1
    49   100   103    1
    50   100   101    1
    51   103   104    1
    52   115   116    2
    53     4     3    2
    54   129   131   ar
    55   118   120   ar
    56   118   119   ar
    57   120   122   ar
    58    47    48    1
    59    63    64   ar
    60    63    65   ar
    61     3     2    1
    62    64    66   ar
    63   101   102    2
    64   101   106   am
    65    49    48    1
    66    48    50    1
    67   119   121   ar
    68   122   121   ar
    69    66    67   ar
    70    65    68   ar
    71    65    67   ar
    72   106   107    1
    73     2     1    1
    74     2     5    1
    75    68    70   ar
    76     6     5    1
    77    67    69   ar
    78   109   108    2
    79   107   108    1
    80   107   110    1
    81    70    71   ar
    82    69    71   ar
    83   112   110    1
    84   110   111    1
    85    11     8    1
    86    40    38   ar
    87    40    42   ar
    88    90    88    1
    89    38    37   ar
    90    42    41   ar
    91    26    25    2
    92    24    25    1
    93    24    23    1
    94     8     7    1
    95     8     9    1
    96    16    17    1
    97    16    13    1
    98    88    87    1
    99    12     9   am
   100    12    13    1
   101    19    17   ar
   102    19    21   ar
   103    17    18   ar
   104    21    22   ar
   105     9    10    2
   106    13    14    1
   107    37    36    1
   108    37    39   ar
   109    41    39   ar
   110    18    20   ar
   111    35    34    2
   112    34    33    1
   113    22    20   ar
   114    87    84    1
   115    87    89    1
   116    36    33    1
   117    83    84    1
   118    14    15    2
   119    97    96    1
   120    84    85    1
   121    33    32    1
   122    27    28    1
   123    31    28    1
   124    28    29    1
   125    96    98    1
   126    96    95    1
   127    85    86    2
   128    95    92    1
   129    29    30    2
   130    91    92    1
   131    92    93    1
   132    93    94    2
