@<TRIPOS>MOLECULE
tmp/1ukaA00.pdb
 136 133 0 0 0
SMALL
GASTEIGER

@<TRIPOS>ATOM
      1  N         14.7790   38.1760   -5.9540 N.3    31  GLY31      -0.1210
      2  CA        13.3360   38.2260   -6.1010 C.3    31  GLY31       0.1956
      3  C         12.8300   36.9580   -6.7580 C.2    31  GLY31       0.2612
      4  O         13.5850   36.0020   -6.9480 O.2    31  GLY31      -0.2717
      5  N         11.5490   36.9390   -7.1040 N.am   32  SER32      -0.1952
      6  CA        10.9770   35.7700   -7.7480 C.3    32  SER32       0.1924
      7  C         10.6600   36.1090   -9.1930 C.2    32  SER32       0.2314
      8  O         10.4110   37.2610   -9.5390 O.2    32  SER32      -0.2863
      9  CB         9.7090   35.3020   -7.0200 C.3    32  SER32       0.2116
     10  OG         8.6830   36.2750   -7.0850 O.3    32  SER32      -0.2180
     11  N         12.1370   42.3550   -3.5410 N.3   101  ALA101     -0.1231
     12  CA        10.7540   41.9420   -3.7700 C.3   101  ALA101      0.1694
     13  C         10.3980   40.7090   -2.9460 C.2   101  ALA101      0.2592
     14  O         10.2500   40.7910   -1.7290 O.2   101  ALA101     -0.2718
     15  CB        10.5570   41.6660   -5.2470 C.3   101  ALA101      0.0304
     16  N         10.2320   39.5770   -3.6230 N.am  102  PHE102     -0.1976
     17  CA         9.9460   38.3060   -2.9630 C.3   102  PHE102      0.1639
     18  C         10.9410   38.1500   -1.8110 C.2   102  PHE102      0.2290
     19  O         10.5680   37.8000   -0.6940 O.2   102  PHE102     -0.2864
     20  CB        10.1200   37.1780   -3.9930 C.3   102  PHE102      0.0560
     21  CG        10.3600   35.8150   -3.4060 C.ar  102  PHE102     -0.0200
     22  CD1        9.3070   35.0560   -2.9020 C.ar  102  PHE102     -0.0042
     23  CD2       11.6390   35.2650   -3.4150 C.ar  102  PHE102     -0.0042
     24  CE1        9.5240   33.7620   -2.4240 C.ar  102  PHE102     -0.0003
     25  CE2       11.8670   33.9730   -2.9390 C.ar  102  PHE102     -0.0003
     26  CZ        10.8050   33.2220   -2.4440 C.ar  102  PHE102     -0.0000
     27  N          8.0060   42.5320   -0.9380 N.3   127  ALA127     -0.1245
     28  CA         6.7370   41.9160   -0.6170 C.3   127  ALA127      0.1562
     29  C          6.8200   42.0470    0.9050 C.2   127  ALA127      0.2260
     30  O          7.8580   42.4580    1.4300 O.2   127  ALA127     -0.2867
     31  CB         6.7300   40.4480   -1.0330 C.3   127  ALA127      0.0290
     32  N         -0.8110   43.7580   -0.5340 N.3   131  PHE131     -0.1241
     33  CA        -1.2070   44.7310   -1.5380 C.3   131  PHE131      0.1605
     34  C         -2.0160   43.9870   -2.5860 C.2   131  PHE131      0.2264
     35  O         -1.8380   42.7820   -2.7690 O.2   131  PHE131     -0.2867
     36  CB         0.0260   45.4050   -2.1580 C.3   131  PHE131      0.0534
     37  CG         0.9660   44.4580   -2.8460 C.ar  131  PHE131     -0.0203
     38  CD1        0.7980   44.1390   -4.1900 C.ar  131  PHE131     -0.0042
     39  CD2        2.0270   43.8870   -2.1500 C.ar  131  PHE131     -0.0042
     40  CE1        1.6740   43.2640   -4.8320 C.ar  131  PHE131     -0.0003
     41  CE2        2.9080   43.0110   -2.7810 C.ar  131  PHE131     -0.0003
     42  CZ         2.7310   42.7000   -4.1250 C.ar  131  PHE131     -0.0000
     43  N          2.4650   41.6020  -11.5380 N.3   137  LEU137     -0.1245
     44  CA         2.7980   40.4610  -10.7000 C.3   137  LEU137      0.1561
     45  C          2.1470   39.1850  -11.2270 C.2   137  LEU137      0.2260
     46  O          2.7730   38.1240  -11.2540 O.2   137  LEU137     -0.2867
     47  CB         2.3650   40.7230   -9.2520 C.3   137  LEU137      0.0270
     48  CG         2.6550   39.6110   -8.2360 C.3   137  LEU137      0.0019
     49  CD1        2.8810   40.2300   -6.8720 C.3   137  LEU137      0.0001
     50  CD2        1.5040   38.6110   -8.1970 C.3   137  LEU137      0.0001
     51  N          4.1480   37.8920  -14.1360 N.3   140  VAL140     -0.1231
     52  CA         5.4130   37.2780  -13.7550 C.3   140  VAL140      0.1692
     53  C          5.1820   35.8820  -13.1820 C.2   140  VAL140      0.2592
     54  O          5.7690   34.9060  -13.6530 O.2   140  VAL140     -0.2718
     55  CB         6.1740   38.1310  -12.7050 C.3   140  VAL140      0.0266
     56  CG1        7.4370   37.4000  -12.2550 C.3   140  VAL140      0.0020
     57  CG2        6.5450   39.4860  -13.3040 C.3   140  VAL140      0.0020
     58  N          4.3220   35.7820  -12.1710 N.am  141  TRP141     -0.1976
     59  CA         4.0520   34.4880  -11.5560 C.3   141  TRP141      0.1640
     60  C          3.3030   33.5320  -12.4810 C.2   141  TRP141      0.2290
     61  O          3.3930   32.3150  -12.3150 O.2   141  TRP141     -0.2864
     62  CB         3.2700   34.6680  -10.2460 C.3   141  TRP141      0.0576
     63  CG         4.1210   35.1300   -9.0840 C.ar  141  TRP141      0.0006
     64  CD1        5.4840   35.2590   -9.0610 C.ar  141  TRP141      0.0946
     65  CD2        3.6670   35.4580   -7.7620 C.ar  141  TRP141      0.0152
     66  NE1        5.9040   35.6400   -7.8070 N.ar  141  TRP141     -0.2442
     67  CE2        4.8110   35.7680   -6.9910 C.ar  141  TRP141      0.0810
     68  CE3        2.4050   35.5150   -7.1530 C.ar  141  TRP141      0.0012
     69  CZ2        4.7320   36.1310   -5.6390 C.ar  141  TRP141      0.0191
     70  CZ3        2.3260   35.8760   -5.8040 C.ar  141  TRP141      0.0001
     71  CH2        3.4840   36.1770   -5.0650 C.ar  141  TRP141      0.0015
     72  N          9.2310   45.0430  -15.8760 N.3   157  PHE157     -0.1241
     73  CA        10.2380   45.3790  -14.8710 C.3   157  PHE157      0.1605
     74  C         10.9550   46.6980  -15.1230 C.2   157  PHE157      0.2264
     75  O         11.2990   47.4170  -14.1820 O.2   157  PHE157     -0.2867
     76  CB        11.3050   44.2800  -14.8030 C.3   157  PHE157      0.0534
     77  CG        10.9610   43.1390  -13.8920 C.ar  157  PHE157     -0.0203
     78  CD1        9.7340   42.4970  -13.9830 C.ar  157  PHE157     -0.0042
     79  CD2       11.8920   42.6740  -12.9680 C.ar  157  PHE157     -0.0042
     80  CE1        9.4380   41.4040  -13.1700 C.ar  157  PHE157     -0.0003
     81  CE2       11.6040   41.5780  -12.1490 C.ar  157  PHE157     -0.0003
     82  CZ        10.3740   40.9440  -12.2540 C.ar  157  PHE157     -0.0000
     83  N          0.5530   36.4860   -2.1920 N.3   197  ILE197     -0.1245
     84  CA         1.0290   37.8020   -1.7870 C.3   197  ILE197      0.1561
     85  C          0.7390   37.8850   -0.2910 C.2   197  ILE197      0.2260
     86  O          1.5890   38.2880    0.5010 O.2   197  ILE197     -0.2867
     87  CB         0.2600   38.9360   -2.5050 C.3   197  ILE197      0.0252
     88  CG1        0.6480   38.9690   -3.9850 C.3   197  ILE197      0.0019
     89  CG2        0.5440   40.2760   -1.8270 C.3   197  ILE197      0.0019
     90  CD1       -0.1640   39.9530   -4.8090 C.3   197  ILE197      0.0001
     91  N          3.0140   35.6430    1.8700 N.3   200  LEU200     -0.1245
     92  CA         4.3720   36.1640    1.9790 C.3   200  LEU200      0.1561
     93  C          4.4380   37.3890    2.8770 C.2   200  LEU200      0.2260
     94  O          5.5030   37.7450    3.3790 O.2   200  LEU200     -0.2867
     95  CB         4.9150   36.5360    0.5960 C.3   200  LEU200      0.0270
     96  CG         5.4270   35.3970   -0.2860 C.3   200  LEU200      0.0019
     97  CD1        5.7630   35.9310   -1.6740 C.3   200  LEU200      0.0001
     98  CD2        6.6590   34.7700    0.3600 C.3   200  LEU200      0.0001
     99  N          5.0930   46.0650  -10.7290 N.3   224  VAL224     -0.1231
    100  CA         4.8760   44.7740  -10.0860 C.3   224  VAL224      0.1692
    101  C          4.3840   44.9250   -8.6520 C.2   224  VAL224      0.2591
    102  O          3.3370   44.3910   -8.2860 O.2   224  VAL224     -0.2718
    103  CB         6.1750   43.9440  -10.1160 C.3   224  VAL224      0.0266
    104  CG1        5.9200   42.5530   -9.5680 C.3   224  VAL224      0.0020
    105  CG2        6.6900   43.8630  -11.5480 C.3   224  VAL224      0.0020
    106  N          5.1500   45.6400   -7.8380 N.am  225  VAL225     -0.1980
    107  CA         4.7600   45.9020   -6.4590 C.3   225  VAL225      0.1595
    108  C          4.5330   47.4100   -6.4100 C.2   225  VAL225      0.2287
    109  O          5.4360   48.1900   -6.7110 O.2   225  VAL225     -0.2864
    110  CB         5.8730   45.5160   -5.4580 C.3   225  VAL225      0.0276
    111  CG1        5.4240   45.8300   -4.0300 C.3   225  VAL225      0.0022
    112  CG2        6.2060   44.0350   -5.5890 C.3   225  VAL225      0.0022
    113  N         10.8380   48.0540  -11.3880 N.3   250  HIS250     -0.1226
    114  CA        10.9170   47.0300  -10.3560 C.3   250  HIS250      0.1752
    115  C         12.3040   46.5330   -9.9530 C.2   250  HIS250      0.2596
    116  O         12.4590   45.9860   -8.8670 O.2   250  HIS250     -0.2718
    117  CB        10.0350   45.8420  -10.7460 C.3   250  HIS250      0.0759
    118  CG         9.8110   44.8690   -9.6310 C.ar  250  HIS250      0.0818
    119  ND1        9.3860   45.2580   -8.3780 N.ar  250  HIS250     -0.2268
    120  CD2        9.9400   43.5220   -9.5820 C.ar  250  HIS250      0.1154
    121  CE1        9.2640   44.1930   -7.6050 C.ar  250  HIS250      0.1986
    122  NE2        9.5930   43.1270   -8.3130 N.ar  250  HIS250     -0.2212
    123  N         13.3110   46.6970  -10.8020 N.am  251  TRP251     -0.1976
    124  CA        14.6450   46.2630  -10.3930 C.3   251  TRP251      0.1640
    125  C         15.5990   47.4410  -10.3280 C.2   251  TRP251      0.2290
    126  O         16.3730   47.7160  -11.2460 O.2   251  TRP251     -0.2864
    127  CB        15.1710   45.1370  -11.2910 C.3   251  TRP251      0.0576
    128  CG        14.7240   43.7760  -10.7920 C.ar  251  TRP251      0.0006
    129  CD1       13.8450   43.5290   -9.7710 C.ar  251  TRP251      0.0946
    130  CD2       15.1030   42.4930  -11.3080 C.ar  251  TRP251      0.0152
    131  NE1       13.6520   42.1770   -9.6240 N.ar  251  TRP251     -0.2442
    132  CE2       14.4100   41.5170  -10.5530 C.ar  251  TRP251      0.0810
    133  CE3       15.9570   42.0730  -12.3360 C.ar  251  TRP251      0.0012
    134  CZ2       14.5430   40.1450  -10.7960 C.ar  251  TRP251      0.0191
    135  CZ3       16.0890   40.7060  -12.5780 C.ar  251  TRP251      0.0001
    136  CH2       15.3840   39.7600  -11.8110 C.ar  251  TRP251      0.0015
@<TRIPOS>BOND
     1    72    73    1
     2    74    73    1
     3    74    75    2
     4    73    76    1
     5    76    77    1
     6    51    52    1
     7    78    77   ar
     8    78    80   ar
     9    77    79   ar
    10    52    53    1
    11    52    55    1
    12    54    53    2
    13    57    55    1
    14    53    58   am
    15    80    82   ar
    16    79    81   ar
    17    55    56    1
    18   135   133   ar
    19   135   136   ar
    20    60    61    2
    21    60    59    1
    22   133   130   ar
    23    82    81   ar
    24    58    59    1
    25   136   134   ar
    26    59    62    1
    27   105   103    1
    28    43    44    1
    29   113   114    1
    30   130   128   ar
    31   130   132   ar
    32   127   128    1
    33   127   124    1
    34    46    45    2
    35   126   125    2
    36    45    44    1
    37   123   124    1
    38   123   115   am
    39   134   132   ar
    40   128   129   ar
    41   117   114    1
    42   117   118    1
    43    99   100    1
    44    44    47    1
    45   132   131   ar
    46   124   125    1
    47   114   115    1
    48    62    63    1
    49   103   100    1
    50   103   104    1
    51   100   101    1
    52   115   116    2
    53   129   131   ar
    54   118   120   ar
    55   118   119   ar
    56   120   122   ar
    57     8     7    2
    58    47    48    1
    59     7     6    1
    60    63    64   ar
    61    63    65   ar
    62    64    66   ar
    63   101   102    2
    64   101   106   am
    65   119   121   ar
    66   122   121   ar
    67    48    50    1
    68    48    49    1
    69   106   107    1
    70    66    67   ar
    71    65    68   ar
    72    65    67   ar
    73     6     5    1
    74     6     9    1
    75    68    70   ar
    76     5     3   am
    77    10     9    1
    78    67    69   ar
    79     4     3    2
    80     3     2    1
    81   109   108    2
    82   107   108    1
    83   107   110    1
    84     2     1    1
    85    70    71   ar
    86    69    71   ar
    87   112   110    1
    88   110   111    1
    89    15    12    1
    90    40    38   ar
    91    40    42   ar
    92    90    88    1
    93    38    37   ar
    94    42    41   ar
    95    20    21    1
    96    20    17    1
    97    88    87    1
    98    12    11    1
    99    12    13    1
   100    16    17    1
   101    16    13   am
   102    23    21   ar
   103    23    25   ar
   104    21    22   ar
   105    17    18    1
   106    13    14    2
   107    25    26   ar
   108    22    24   ar
   109    37    36    1
   110    37    39   ar
   111    41    39   ar
   112    35    34    2
   113    34    33    1
   114    87    89    1
   115    87    84    1
   116    26    24   ar
   117    83    84    1
   118    36    33    1
   119    18    19    2
   120    84    85    1
   121    97    96    1
   122    33    32    1
   123    31    28    1
   124    27    28    1
   125    28    29    1
   126    85    86    2
   127    96    98    1
   128    96    95    1
   129    95    92    1
   130    29    30    2
   131    91    92    1
   132    92    93    1
   133    93    94    2
