@<TRIPOS>MOLECULE
tmp/1ukbA01.pdb
 105 99 0 0 0
SMALL
GASTEIGER

@<TRIPOS>ATOM
      1  N         21.6550   36.2390  -11.3400 N.3    40  ALA40      -0.1245
      2  CA        20.8950   37.0900  -12.2530 C.3    40  ALA40       0.1562
      3  C         20.4210   38.3600  -11.5470 C.2    40  ALA40       0.2260
      4  O         20.4350   39.4480  -12.1250 O.2    40  ALA40      -0.2867
      5  CB        19.6960   36.3270  -12.8100 C.3    40  ALA40       0.0290
      6  N         24.2520   40.2220   -9.8480 N.3    43  ARG43      -0.1245
      7  CA        25.5320   40.3160  -10.5510 C.3    43  ARG43       0.1563
      8  C         26.1970   41.6970  -10.5170 C.2    43  ARG43       0.2260
      9  O         27.4250   41.7940  -10.5530 O.2    43  ARG43      -0.2867
     10  CB        25.3610   39.8640  -12.0050 C.3    43  ARG43       0.0307
     11  CG        24.3650   40.6970  -12.7900 C.3    43  ARG43       0.0489
     12  CD        24.0550   40.0780  -14.1430 C.3    43  ARG43       0.2205
     13  NE        23.0810   40.8760  -14.8830 N.pl3  43  ARG43      -0.0865
     14  CZ        23.3400   42.0630  -15.4240 C.cat  43  ARG43       0.5346
     15  NH1       24.5510   42.5960  -15.3170 N.pl3  43  ARG43       0.1354
     16  NH2       22.3840   42.7220  -16.0650 N.pl3  43  ARG43       0.1354
     17  N         10.1260   41.4920  -19.0130 N.3   154  LEU154     -0.1245
     18  CA        11.2620   42.3850  -18.8440 C.3   154  LEU154      0.1561
     19  C         10.7640   43.8240  -18.9580 C.2   154  LEU154      0.2260
     20  O         11.2320   44.7050  -18.2340 O.2   154  LEU154     -0.2867
     21  CB        12.3460   42.0810  -19.8890 C.3   154  LEU154      0.0270
     22  CG        12.9180   40.6550  -19.8150 C.3   154  LEU154      0.0019
     23  CD1       13.8820   40.4170  -20.9700 C.3   154  LEU154      0.0001
     24  CD2       13.6250   40.4400  -18.4760 C.3   154  LEU154      0.0001
     25  N          9.2110   44.8330  -15.7430 N.3   157  PHE157     -0.1227
     26  CA        10.2180   45.0390  -14.7040 C.3   157  PHE157      0.1736
     27  C         10.9800   46.3570  -14.7590 C.2   157  PHE157      0.2595
     28  O         11.3550   46.9030  -13.7210 O.2   157  PHE157     -0.2718
     29  CB        11.2510   43.9100  -14.7450 C.3   157  PHE157      0.0547
     30  CG        11.0040   42.8130  -13.7510 C.ar  157  PHE157     -0.0202
     31  CD1        9.8180   42.0920  -13.7640 C.ar  157  PHE157     -0.0042
     32  CD2       11.9780   42.4860  -12.8100 C.ar  157  PHE157     -0.0042
     33  CE1        9.6030   41.0560  -12.8580 C.ar  157  PHE157     -0.0003
     34  CE2       11.7730   41.4530  -11.9000 C.ar  157  PHE157     -0.0003
     35  CZ        10.5820   40.7370  -11.9240 C.ar  157  PHE157     -0.0000
     36  N         11.2210   46.8700  -15.9560 N.am  158  ALA158     -0.1980
     37  CA        12.0110   48.0880  -16.0610 C.3   158  ALA158      0.1597
     38  C         11.3090   49.3370  -16.5520 C.2   158  ALA158      0.2287
     39  O         10.2990   49.2840  -17.2480 O.2   158  ALA158     -0.2864
     40  CB        13.2390   47.8220  -16.9230 C.3   158  ALA158      0.0319
     41  N         16.4590   49.0920  -22.5600 N.3   163  LEU163     -0.1231
     42  CA        17.3690   48.1200  -21.9640 C.3   163  LEU163      0.1693
     43  C         16.9240   46.6940  -22.2760 C.2   163  LEU163      0.2591
     44  O         17.6920   45.7440  -22.1190 O.2   163  LEU163     -0.2718
     45  CB        17.4310   48.3060  -20.4470 C.3   163  LEU163      0.0284
     46  CG        17.8650   49.6760  -19.9240 C.3   163  LEU163      0.0019
     47  CD1       17.8430   49.6570  -18.4050 C.3   163  LEU163      0.0001
     48  CD2       19.2570   50.0190  -20.4360 C.3   163  LEU163      0.0001
     49  N         15.6780   46.5470  -22.7110 N.am  164  VAL164     -0.1980
     50  CA        15.1450   45.2310  -23.0430 C.3   164  VAL164      0.1595
     51  C         15.4730   44.9070  -24.4960 C.2   164  VAL164      0.2287
     52  O         14.7470   45.2990  -25.4070 O.2   164  VAL164     -0.2864
     53  CB        13.6160   45.1790  -22.8540 C.3   164  VAL164      0.0276
     54  CG1       13.1090   43.7700  -23.1300 C.3   164  VAL164      0.0022
     55  CG2       13.2500   45.6160  -21.4420 C.3   164  VAL164      0.0022
     56  N         18.7560   39.9270  -24.4670 N.3   168  LEU168     -0.1245
     57  CA        18.3940   39.7440  -23.0660 C.3   168  LEU168      0.1561
     58  C         17.1490   38.8720  -22.9500 C.2   168  LEU168      0.2260
     59  O         17.0870   37.9740  -22.1070 O.2   168  LEU168     -0.2867
     60  CB        18.1430   41.0970  -22.3910 C.3   168  LEU168      0.0270
     61  CG        17.7970   41.0430  -20.8990 C.3   168  LEU168      0.0019
     62  CD1       18.9370   40.4050  -20.1190 C.3   168  LEU168      0.0001
     63  CD2       17.5310   42.4470  -20.3860 C.3   168  LEU168      0.0001
     64  N         17.1830   35.2560  -21.0390 N.3   172  ARG172     -0.1245
     65  CA        16.3300   34.9900  -19.8880 C.3   172  ARG172      0.1563
     66  C         15.2750   33.9400  -20.2210 C.2   172  ARG172      0.2260
     67  O         14.8250   33.2060  -19.3410 O.2   172  ARG172     -0.2867
     68  CB        15.6900   36.2870  -19.3820 C.3   172  ARG172      0.0307
     69  CG        16.7150   37.3260  -18.9080 C.3   172  ARG172      0.0489
     70  CD        17.9070   36.6810  -18.1790 C.3   172  ARG172      0.2205
     71  NE        17.5090   35.8500  -17.0420 N.pl3 172  ARG172     -0.0865
     72  CZ        18.3360   35.0550  -16.3640 C.cat 172  ARG172      0.5346
     73  NH1       19.6190   34.9700  -16.7010 N.pl3 172  ARG172      0.1354
     74  NH2       17.8810   34.3380  -15.3470 N.pl3 172  ARG172      0.1354
     75  N         13.3430   46.7720  -10.7550 N.3   251  TRP251     -0.1241
     76  CA        14.7020   46.2540  -10.8660 C.3   251  TRP251      0.1605
     77  C         15.7300   47.3130  -10.4520 C.2   251  TRP251      0.2264
     78  O         16.7460   47.4970  -11.1170 O.2   251  TRP251     -0.2867
     79  CB        14.9100   45.8730  -12.3290 C.3   251  TRP251      0.0550
     80  CG        15.8040   44.7300  -12.5880 C.ar  251  TRP251      0.0003
     81  CD1       16.7900   44.6760  -13.5200 C.ar  251  TRP251      0.0946
     82  CD2       15.7640   43.4410  -11.9670 C.ar  251  TRP251      0.0152
     83  NE1       17.3760   43.4350  -13.5250 N.ar  251  TRP251     -0.2442
     84  CE2       16.7640   42.6540  -12.5810 C.ar  251  TRP251      0.0810
     85  CE3       14.9820   42.8730  -10.9530 C.ar  251  TRP251      0.0012
     86  CZ2       17.0030   41.3290  -12.2190 C.ar  251  TRP251      0.0191
     87  CZ3       15.2190   41.5510  -10.5920 C.ar  251  TRP251      0.0001
     88  CH2       16.2240   40.7960  -11.2270 C.ar  251  TRP251      0.0015
     89  N         19.5410   47.1360  -10.7300 N.3   254  ILE254     -0.1231
     90  CA        20.0690   47.0870  -12.0900 C.3   254  ILE254      0.1692
     91  C         19.7950   48.3900  -12.8420 C.2   254  ILE254      0.2591
     92  O         20.6150   48.8340  -13.6470 O.2   254  ILE254     -0.2718
     93  CB        19.4370   45.9260  -12.8900 C.3   254  ILE254      0.0266
     94  CG1       19.7210   44.5890  -12.1960 C.3   254  ILE254      0.0019
     95  CG2       19.9640   45.9230  -14.3230 C.3   254  ILE254      0.0020
     96  CD1       21.1820   44.2110  -12.1400 C.3   254  ILE254      0.0001
     97  N         18.6420   48.9950  -12.5760 N.am  255  GLU255     -0.1979
     98  CA        18.2490   50.2390  -13.2390 C.3   255  GLU255      0.1602
     99  C         18.9550   51.4830  -12.7070 C.2   255  GLU255      0.2287
    100  O         19.2060   52.4270  -13.4550 O.2   255  GLU255     -0.2864
    101  CB        16.7380   50.4330  -13.1160 C.3   255  GLU255      0.0415
    102  CG        15.9140   49.3810  -13.8360 C.3   255  GLU255      0.1163
    103  CD        14.4320   49.5120  -13.5460 C.2   255  GLU255      0.3649
    104  OE1       13.9360   48.8200  -12.6270 O.co2 255  GLU255     -0.2457
    105  OE2       13.7670   50.3180  -14.2300 O.co2 255  GLU255     -0.2457
@<TRIPOS>BOND
     1    52    51    2
     2    51    50    1
     3    56    57    1
     4    54    53    1
     5    57    58    1
     6    57    60    1
     7    50    53    1
     8    50    49    1
     9    58    59    2
    10    53    55    1
    11    49    43   am
    12    41    42    1
    13    60    61    1
    14    43    44    2
    15    43    42    1
    16    42    45    1
    17    64    65    1
    18    23    22    1
    19    61    63    1
    20    61    62    1
    21    45    46    1
    22    48    46    1
    23    66    65    1
    24    66    67    2
    25    46    47    1
    26    21    22    1
    27    21    18    1
    28    65    68    1
    29    22    24    1
    30    68    69    1
    31    17    18    1
    32    19    18    1
    33    19    20    2
    34    69    70    1
    35    70    71    1
    36    39    38    2
    37    71    72    2
    38    40    37    1
    39    73    72    1
    40    38    37    1
    41    72    74    1
    42    16    14    1
    43    37    36    1
    44    36    27   am
    45    25    26    1
    46    14    15    1
    47    14    13    2
    48    13    12    1
    49    27    26    1
    50    27    28    2
    51    29    26    1
    52    29    30    1
    53    95    93    1
    54   105   103   ar
    55    12    11    1
    56   102   103    1
    57   102   101    1
    58    31    30   ar
    59    31    33   ar
    60    30    32   ar
    61    92    91    2
    62   103   104   ar
    63    83    81   ar
    64    83    84   ar
    65    81    80   ar
    66   100    99    2
    67    98   101    1
    68    98    99    1
    69    98    97    1
    70    93    94    1
    71    93    90    1
    72    33    35   ar
    73    91    97   am
    74    91    90    1
    75    32    34   ar
    76     5     2    1
    77    11    10    1
    78    80    79    1
    79    80    82   ar
    80    84    86   ar
    81    84    82   ar
    82    79    76    1
    83     2     3    1
    84     2     1    1
    85    86    88   ar
    86    94    96    1
    87     4     3    2
    88    90    89    1
    89    10     7    1
    90    82    85   ar
    91    35    34   ar
    92    88    87   ar
    93    78    77    2
    94    85    87   ar
    95    76    75    1
    96    76    77    1
    97     9     8    2
    98     7     8    1
    99     7     6    1
