@<TRIPOS>MOLECULE
tmp/1ukbA00.pdb
 122 117 0 0 0
SMALL
GASTEIGER

@<TRIPOS>ATOM
      1  N         14.5110   37.8710   -6.0440 N.3    31  GLY31      -0.1210
      2  CA        13.0770   37.9610   -6.3000 C.3    31  GLY31       0.1956
      3  C         12.4700   36.6290   -6.7020 C.2    31  GLY31       0.2612
      4  O         13.0910   35.5890   -6.4850 O.2    31  GLY31      -0.2717
      5  N         11.2760   36.6400   -7.2990 N.am   32  SER32      -0.1952
      6  CA        10.6270   35.3770   -7.6640 C.3    32  SER32       0.1924
      7  C         10.1390   35.2290   -9.1040 C.2    32  SER32       0.2314
      8  O          9.1320   34.5630   -9.3450 O.2    32  SER32      -0.2863
      9  CB         9.4410   35.1010   -6.7300 C.3    32  SER32       0.2116
     10  OG         8.3830   36.0140   -6.9650 O.3    32  SER32      -0.2180
     11  N         11.9890   42.1500   -3.3300 N.3   101  ALA101     -0.1231
     12  CA        10.6270   41.6930   -3.5740 C.3   101  ALA101      0.1694
     13  C         10.3160   40.4540   -2.7380 C.2   101  ALA101      0.2592
     14  O         10.2030   40.5360   -1.5160 O.2   101  ALA101     -0.2718
     15  CB        10.4670   41.3940   -5.0530 C.3   101  ALA101      0.0304
     16  N         10.1570   39.3170   -3.4100 N.am  102  PHE102     -0.1976
     17  CA         9.9100   38.0370   -2.7440 C.3   102  PHE102      0.1639
     18  C         10.8660   37.9500   -1.5540 C.2   102  PHE102      0.2290
     19  O         10.4550   37.6880   -0.4200 O.2   102  PHE102     -0.2864
     20  CB        10.1990   36.9060   -3.7440 C.3   102  PHE102      0.0560
     21  CG        10.2550   35.5260   -3.1420 C.ar  102  PHE102     -0.0200
     22  CD1        9.1120   34.9170   -2.6330 C.ar  102  PHE102     -0.0042
     23  CD2       11.4450   34.8050   -3.1560 C.ar  102  PHE102     -0.0042
     24  CE1        9.1540   33.6070   -2.1540 C.ar  102  PHE102     -0.0003
     25  CE2       11.4990   33.4930   -2.6780 C.ar  102  PHE102     -0.0003
     26  CZ        10.3520   32.8940   -2.1790 C.ar  102  PHE102     -0.0000
     27  N          7.9720   42.3150   -0.7120 N.3   127  ALA127     -0.1245
     28  CA         6.7400   41.6510   -0.3350 C.3   127  ALA127      0.1562
     29  C          6.7660   41.9530    1.1580 C.2   127  ALA127      0.2260
     30  O          7.7820   42.4310    1.6730 O.2   127  ALA127     -0.2867
     31  CB         6.8500   40.1490   -0.5700 C.3   127  ALA127      0.0290
     32  N         -1.2240   43.8410   -0.4620 N.3   131  PHE131     -0.1241
     33  CA        -1.5620   44.8500   -1.4430 C.3   131  PHE131      0.1605
     34  C         -2.3270   44.1050   -2.5250 C.2   131  PHE131      0.2264
     35  O         -2.0990   42.9100   -2.7200 O.2   131  PHE131     -0.2867
     36  CB        -0.2750   45.5020   -1.9730 C.3   131  PHE131      0.0534
     37  CG         0.6500   44.5650   -2.6970 C.ar  131  PHE131     -0.0203
     38  CD1        0.4640   44.2990   -4.0470 C.ar  131  PHE131     -0.0042
     39  CD2        1.7390   43.9920   -2.0440 C.ar  131  PHE131     -0.0042
     40  CE1        1.3470   43.4820   -4.7410 C.ar  131  PHE131     -0.0003
     41  CE2        2.6290   43.1710   -2.7310 C.ar  131  PHE131     -0.0003
     42  CZ         2.4330   42.9170   -4.0820 C.ar  131  PHE131     -0.0000
     43  N          2.4150   41.5800  -11.3830 N.3   137  LEU137     -0.1245
     44  CA         2.7770   40.3820  -10.6400 C.3   137  LEU137      0.1561
     45  C          2.0370   39.1580  -11.1700 C.2   137  LEU137      0.2260
     46  O          2.6070   38.0690  -11.2460 O.2   137  LEU137     -0.2867
     47  CB         2.4890   40.5650   -9.1500 C.3   137  LEU137      0.0270
     48  CG         2.9600   39.4240   -8.2410 C.3   137  LEU137      0.0019
     49  CD1        4.4460   39.1370   -8.4720 C.3   137  LEU137      0.0001
     50  CD2        2.7090   39.8120   -6.7910 C.3   137  LEU137      0.0001
     51  N          3.8780   38.0750  -14.1770 N.3   140  VAL140     -0.1231
     52  CA         5.1590   37.4740  -13.8190 C.3   140  VAL140      0.1692
     53  C          4.9670   36.0410  -13.3210 C.2   140  VAL140      0.2592
     54  O          5.6120   35.1120  -13.8120 O.2   140  VAL140     -0.2718
     55  CB         5.8840   38.3020  -12.7260 C.3   140  VAL140      0.0266
     56  CG1        7.1110   37.5520  -12.2230 C.3   140  VAL140      0.0020
     57  CG2        6.3060   39.6540  -13.2930 C.3   140  VAL140      0.0020
     58  N          4.0770   35.8600  -12.3520 N.am  141  TRP141     -0.1976
     59  CA         3.8280   34.5290  -11.8140 C.3   141  TRP141      0.1640
     60  C          3.0770   33.6210  -12.7870 C.2   141  TRP141      0.2290
     61  O          3.1590   32.3970  -12.6820 O.2   141  TRP141     -0.2864
     62  CB         3.0610   34.6240  -10.4890 C.3   141  TRP141      0.0576
     63  CG         3.9170   35.0600   -9.3240 C.ar  141  TRP141      0.0006
     64  CD1        5.2850   35.0660   -9.2650 C.ar  141  TRP141      0.0946
     65  CD2        3.4590   35.4610   -8.0240 C.ar  141  TRP141      0.0152
     66  NE1        5.7050   35.4390   -8.0070 N.ar  141  TRP141     -0.2442
     67  CE2        4.6060   35.6830   -7.2270 C.ar  141  TRP141      0.0810
     68  CE3        2.1920   35.6470   -7.4540 C.ar  141  TRP141      0.0012
     69  CZ2        4.5220   36.0830   -5.8890 C.ar  141  TRP141      0.0191
     70  CZ3        2.1100   36.0480   -6.1170 C.ar  141  TRP141      0.0001
     71  CH2        3.2710   36.2580   -5.3530 C.ar  141  TRP141      0.0015
     72  N          9.2110   44.8330  -15.7430 N.3   157  PHE157     -0.1241
     73  CA        10.2180   45.0390  -14.7040 C.3   157  PHE157      0.1605
     74  C         10.9800   46.3570  -14.7590 C.2   157  PHE157      0.2264
     75  O         11.3550   46.9030  -13.7210 O.2   157  PHE157     -0.2867
     76  CB        11.2510   43.9100  -14.7450 C.3   157  PHE157      0.0534
     77  CG        11.0040   42.8130  -13.7510 C.ar  157  PHE157     -0.0203
     78  CD1        9.8180   42.0920  -13.7640 C.ar  157  PHE157     -0.0042
     79  CD2       11.9780   42.4860  -12.8100 C.ar  157  PHE157     -0.0042
     80  CE1        9.6030   41.0560  -12.8580 C.ar  157  PHE157     -0.0003
     81  CE2       11.7730   41.4530  -11.9000 C.ar  157  PHE157     -0.0003
     82  CZ        10.5820   40.7370  -11.9240 C.ar  157  PHE157     -0.0000
     83  N          0.4940   36.6670   -2.0550 N.3   197  ILE197     -0.1245
     84  CA         0.9050   37.9910   -1.6150 C.3   197  ILE197      0.1561
     85  C          0.5930   38.0270   -0.1200 C.2   197  ILE197      0.2260
     86  O          1.4140   38.4480    0.6950 O.2   197  ILE197     -0.2867
     87  CB         0.1020   39.0920   -2.3330 C.3   197  ILE197      0.0252
     88  CG1        0.5610   39.1920   -3.7910 C.3   197  ILE197      0.0019
     89  CG2        0.2790   40.4240   -1.6180 C.3   197  ILE197      0.0019
     90  CD1       -0.2880   40.1170   -4.6410 C.3   197  ILE197      0.0001
     91  N          2.8980   35.6920    2.0260 N.3   200  LEU200     -0.1245
     92  CA         4.2550   36.2150    2.1660 C.3   200  LEU200      0.1561
     93  C          4.3190   37.4740    3.0230 C.2   200  LEU200      0.2260
     94  O          5.3970   37.8910    3.4470 O.2   200  LEU200     -0.2867
     95  CB         4.8490   36.5040    0.7830 C.3   200  LEU200      0.0270
     96  CG         5.1870   35.2650   -0.0520 C.3   200  LEU200      0.0019
     97  CD1        5.5550   35.6680   -1.4750 C.3   200  LEU200      0.0001
     98  CD2        6.3380   34.5180    0.6090 C.3   200  LEU200      0.0001
     99  N          5.1340   45.9980  -10.6220 N.3   224  VAL224     -0.1231
    100  CA         4.8660   44.7430   -9.9280 C.3   224  VAL224      0.1692
    101  C          4.3400   44.9560   -8.5150 C.2   224  VAL224      0.2591
    102  O          3.3500   44.3460   -8.1100 O.2   224  VAL224     -0.2718
    103  CB         6.1400   43.8790   -9.8730 C.3   224  VAL224      0.0266
    104  CG1        5.8270   42.5210   -9.2570 C.3   224  VAL224      0.0020
    105  CG2        6.7080   43.7130  -11.2780 C.3   224  VAL224      0.0020
    106  N          5.0150   45.8190   -7.7660 N.am  225  VAL225     -0.1980
    107  CA         4.6100   46.1340   -6.4030 C.3   225  VAL225      0.1595
    108  C          4.3750   47.6390   -6.3410 C.2   225  VAL225      0.2287
    109  O          5.2670   48.4230   -6.6640 O.2   225  VAL225     -0.2864
    110  CB         5.7060   45.7670   -5.3840 C.3   225  VAL225      0.0276
    111  CG1        5.2220   46.0660   -3.9720 C.3   225  VAL225      0.0022
    112  CG2        6.0720   44.3030   -5.5190 C.3   225  VAL225      0.0022
    113  N         10.9370   47.8730  -11.0890 N.3   250  HIS250     -0.1241
    114  CA        11.0270   46.8390  -10.0530 C.3   250  HIS250      0.1621
    115  C         12.4200   46.2170   -9.9810 C.2   250  HIS250      0.2264
    116  O         12.6520   45.2740   -9.2210 O.2   250  HIS250     -0.2867
    117  CB        10.0020   45.7480  -10.3810 C.3   250  HIS250      0.0745
    118  CG         9.7670   44.7640   -9.2780 C.ar  250  HIS250      0.0817
    119  ND1        9.3630   45.1430   -8.0150 N.ar  250  HIS250     -0.2268
    120  CD2        9.8030   43.4100   -9.2720 C.ar  250  HIS250      0.1154
    121  CE1        9.1570   44.0630   -7.2790 C.ar  250  HIS250      0.1986
    122  NE2        9.4160   42.9980   -8.0190 N.ar  250  HIS250     -0.2212
@<TRIPOS>BOND
     1    72    73    1
     2    74    73    1
     3    74    75    2
     4    76    73    1
     5    76    77    1
     6    51    52    1
     7    52    53    1
     8    52    55    1
     9    54    53    2
    10    78    77   ar
    11    78    80   ar
    12    77    79   ar
    13    53    58   am
    14    57    55    1
    15    80    82   ar
    16    79    81   ar
    17    60    61    2
    18    60    59    1
    19    55    56    1
    20    58    59    1
    21    82    81   ar
    22    59    62    1
    23    43    44    1
    24   105   103    1
    25    46    45    2
    26    45    44    1
    27   113   114    1
    28    44    47    1
    29    99   100    1
    30    62    63    1
    31   117   114    1
    32   117   118    1
    33   114   115    1
    34   115   116    2
    35   100   103    1
    36   100   101    1
    37   103   104    1
    38     8     7    2
    39    63    64   ar
    40    63    65   ar
    41   118   120   ar
    42   118   119   ar
    43   120   122   ar
    44    64    66   ar
    45    47    48    1
    46     7     6    1
    47   101   102    2
    48   101   106   am
    49    49    48    1
    50    48    50    1
    51    65    68   ar
    52    65    67   ar
    53   122   121   ar
    54   119   121   ar
    55    66    67   ar
    56   106   107    1
    57     6     5    1
    58     6     9    1
    59    68    70   ar
    60     5     3   am
    61    67    69   ar
    62    10     9    1
    63     3     4    2
    64     3     2    1
    65   109   108    2
    66   107   108    1
    67   107   110    1
    68     2     1    1
    69    70    71   ar
    70    69    71   ar
    71   112   110    1
    72   110   111    1
    73    15    12    1
    74    40    42   ar
    75    40    38   ar
    76    90    88    1
    77    42    41   ar
    78    38    37   ar
    79    88    87    1
    80    20    21    1
    81    20    17    1
    82    12    11    1
    83    12    13    1
    84    16    17    1
    85    16    13   am
    86    23    21   ar
    87    23    25   ar
    88    21    22   ar
    89    17    18    1
    90    13    14    2
    91    41    39   ar
    92    35    34    2
    93    37    39   ar
    94    37    36    1
    95    25    26   ar
    96    22    24   ar
    97    34    33    1
    98    87    89    1
    99    87    84    1
   100    26    24   ar
   101    83    84    1
   102    36    33    1
   103    84    85    1
   104    18    19    2
   105    97    96    1
   106    33    32    1
   107    27    28    1
   108    31    28    1
   109    28    29    1
   110    85    86    2
   111    96    98    1
   112    96    95    1
   113    95    92    1
   114    29    30    2
   115    91    92    1
   116    92    93    1
   117    93    94    2
