@<TRIPOS>MOLECULE
tmp/1ukcA01.pdb
 94 86 0 0 0
SMALL
GASTEIGER

@<TRIPOS>ATOM
      1  N         -9.1180   84.8900    9.4140 N.3    20  LEU20      -0.1245
      2  CA        -8.2680   84.4410   10.5090 C.3    20  LEU20       0.1561
      3  C         -7.2850   85.5370   10.8830 C.2    20  LEU20       0.2260
      4  O         -6.8510   86.3240   10.0280 O.2    20  LEU20      -0.2867
      5  CB        -7.4810   83.2050   10.1120 C.3    20  LEU20       0.0270
      6  CG        -8.2590   82.0040    9.5750 C.3    20  LEU20       0.0019
      7  CD1       -7.2050   80.9590    9.1520 C.3    20  LEU20       0.0001
      8  CD2       -9.1910   81.4470   10.6710 C.3    20  LEU20       0.0001
      9  N         -4.3400   84.9530   11.3970 N.3    22  ALA22      -0.1245
     10  CA        -3.1990   84.6460   10.5200 C.3    22  ALA22       0.1562
     11  C         -3.0900   85.4860    9.2240 C.2    22  ALA22       0.2260
     12  O         -2.0650   85.4280    8.5300 O.2    22  ALA22      -0.2867
     13  CB        -3.1830   83.1490   10.1630 C.3    22  ALA22       0.0290
     14  N        -10.7920   82.0460    4.8050 N.3    26  GLU26      -0.1245
     15  CA       -11.2270   80.7130    4.4100 C.3    26  GLU26       0.1567
     16  C        -12.6460   80.7240    3.8880 C.2    26  GLU26       0.2260
     17  O        -13.5220   81.3550    4.4760 O.2    26  GLU26      -0.2867
     18  CB       -11.2270   79.7580    5.6040 C.3    26  GLU26       0.0388
     19  CG       -10.0800   79.9260    6.5570 C.3    26  GLU26       0.1160
     20  CD       -10.2410   79.0290    7.7680 C.2    26  GLU26       0.3649
     21  OE1      -11.2880   79.0860    8.4520 O.co2  26  GLU26      -0.2457
     22  OE2       -9.3110   78.2600    8.0230 O.co2  26  GLU26      -0.2457
     23  N        -15.2150   77.7400    3.0940 N.3    28  LEU28      -0.1245
     24  CA       -15.3370   76.2980    3.2630 C.3    28  LEU28       0.1561
     25  C        -16.7310   75.8410    2.9030 C.2    28  LEU28       0.2260
     26  O        -17.7080   76.5290    3.1840 O.2    28  LEU28      -0.2867
     27  CB       -15.0430   75.8970    4.7170 C.3    28  LEU28       0.0270
     28  CG       -13.8440   76.5580    5.3960 C.3    28  LEU28       0.0019
     29  CD1      -13.8010   76.1620    6.8680 C.3    28  LEU28       0.0001
     30  CD2      -12.5610   76.1550    4.6800 C.3    28  LEU28       0.0001
     31  N        -16.9110   73.2790    6.8620 N.3    60  TYR60      -0.1241
     32  CA       -16.7920   72.2230    5.8570 C.3    60  TYR60       0.1605
     33  C        -18.1350   71.4990    5.6460 C.2    60  TYR60       0.2264
     34  O        -18.8850   71.2980    6.6040 O.2    60  TYR60      -0.2867
     35  CB       -15.7320   71.2030    6.3020 C.3    60  TYR60       0.0534
     36  CG       -14.3080   71.7030    6.1590 C.ar   60  TYR60      -0.0201
     37  CD1      -13.4730   71.8410    7.2850 C.ar   60  TYR60      -0.0009
     38  CD2      -13.7940   72.0440    4.8920 C.ar   60  TYR60      -0.0009
     39  CE1      -12.1490   72.2860    7.1550 C.ar   60  TYR60       0.0417
     40  CE2      -12.4790   72.5050    4.7470 C.ar   60  TYR60       0.0417
     41  CZ       -11.6670   72.6130    5.8690 C.ar   60  TYR60       0.1957
     42  OH       -10.3870   73.0680    5.6840 O.3    60  TYR60      -0.2866
     43  N         -8.6140   78.7970    0.4340 N.3    86  PHE86      -0.1241
     44  CA        -7.8850   79.6360    1.3850 C.3    86  PHE86       0.1605
     45  C         -7.1620   80.7140    0.5890 C.2    86  PHE86       0.2264
     46  O         -6.4970   80.4050   -0.4030 O.2    86  PHE86      -0.2867
     47  CB        -6.8410   78.7980    2.1380 C.3    86  PHE86       0.0534
     48  CG        -7.4360   77.7320    3.0080 C.ar   86  PHE86      -0.0203
     49  CD1       -7.8770   76.5330    2.4500 C.ar   86  PHE86      -0.0042
     50  CD2       -7.5320   77.9120    4.3900 C.ar   86  PHE86      -0.0042
     51  CE1       -8.4450   75.5220    3.2450 C.ar   86  PHE86      -0.0003
     52  CE2       -8.0910   76.9060    5.2010 C.ar   86  PHE86      -0.0003
     53  CZ        -8.5390   75.7120    4.6200 C.ar   86  PHE86      -0.0000
     54  N        -10.1210   68.1540    3.7650 N.3   115  ASN115     -0.1240
     55  CA       -10.1750   69.3060    4.6710 C.3   115  ASN115      0.1653
     56  C         -8.8100   69.7240    5.2200 C.2   115  ASN115      0.2266
     57  O         -8.7030   70.1490    6.3620 O.2   115  ASN115     -0.2867
     58  CB       -11.1500   69.0450    5.8370 C.3   115  ASN115      0.1155
     59  CG       -12.5670   68.6660    5.3650 C.2   115  ASN115      0.2627
     60  OD1      -12.9240   68.8240    4.1850 O.2   115  ASN115     -0.2716
     61  ND2      -13.3730   68.1380    6.2960 N.am  115  ASN115     -0.0877
     62  N         -5.6460   72.0360    5.8850 N.3   117  ASN117     -0.1240
     63  CA        -5.5870   73.4700    6.1270 C.3   117  ASN117      0.1653
     64  C         -4.4900   74.1290    5.2970 C.2   117  ASN117      0.2266
     65  O         -3.3290   73.6960    5.3400 O.2   117  ASN117     -0.2867
     66  CB        -5.3220   73.6930    7.6070 C.3   117  ASN117      0.1155
     67  CG        -5.6890   75.0830    8.0670 C.2   117  ASN117      0.2627
     68  OD1       -5.5530   76.0840    7.3510 O.2   117  ASN117     -0.2716
     69  ND2       -6.1190   75.1580    9.2970 N.am  117  ASN117     -0.0877
     70  N         -3.5420   77.3390    5.6880 N.3   119  THR119     -0.1203
     71  CA        -3.0350   78.5530    6.3470 C.3   119  THR119      0.1994
     72  C         -1.4950   78.6380    6.4240 C.2   119  THR119      0.2617
     73  O         -0.9090   79.6760    6.1240 O.2   119  THR119     -0.2717
     74  CB        -3.6570   78.6590    7.7580 C.3   119  THR119      0.1784
     75  OG1       -5.0730   78.7930    7.6110 O.3   119  THR119     -0.2211
     76  CG2       -3.2370   79.9330    8.4990 C.3   119  THR119      0.0376
     77  N         -0.8490   77.5510    6.8380 N.am  120  GLN120     -0.1979
     78  CA         0.5930   77.5620    7.0400 C.3   120  GLN120      0.1601
     79  C          1.3360   77.7290    5.7240 C.2   120  GLN120      0.2287
     80  O          2.3160   78.4800    5.6600 O.2   120  GLN120     -0.2864
     81  CB         1.0540   76.2750    7.7510 C.3   120  GLN120      0.0394
     82  CG         0.8880   76.3450    9.2860 C.3   120  GLN120      0.0908
     83  CD         1.4290   75.1190    9.9930 C.2   120  GLN120      0.2608
     84  OE1        0.6700   74.4150   10.6800 O.2   120  GLN120     -0.2717
     85  NE2        2.7310   74.8510    9.8380 N.am  120  GLN120     -0.0878
     86  N          1.0090   81.4420    4.6950 N.3   123  GLN123     -0.1245
     87  CA         1.9250   82.2560    5.5010 C.3   123  GLN123      0.1566
     88  C          3.4010   82.0400    5.1210 C.2   123  GLN123      0.2260
     89  O          4.1510   83.0110    5.0070 O.2   123  GLN123     -0.2867
     90  CB         1.7400   81.9750    6.9850 C.3   123  GLN123      0.0367
     91  CG         0.3920   82.4120    7.5600 C.3   123  GLN123      0.0905
     92  CD         0.3470   82.1420    9.0700 C.2   123  GLN123      0.2608
     93  OE1        0.3830   83.0790    9.8780 O.2   123  GLN123     -0.2717
     94  NE2        0.3150   80.8750    9.4460 N.am  123  GLN123     -0.0878
@<TRIPOS>BOND
     1    46    45    2
     2    43    44    1
     3    45    44    1
     4    44    47    1
     5    47    48    1
     6    49    48   ar
     7    49    51   ar
     8    25    26    2
     9    25    24    1
    10    48    50   ar
    11    23    24    1
    12    51    53   ar
    13    24    27    1
    14    54    55    1
    15    16    15    1
    16    16    17    2
    17    60    59    2
    18    50    52   ar
    19    15    14    1
    20    15    18    1
    21    53    52   ar
    22    55    56    1
    23    55    58    1
    24    30    28    1
    25    86    87    1
    26    27    28    1
    27    40    38   ar
    28    40    41   ar
    29    38    36   ar
    30    89    88    2
    31    88    87    1
    32    56    57    2
    33    64    65    2
    34    64    63    1
    35    59    58    1
    36    59    61   am
    37    28    29    1
    38    87    90    1
    39    18    19    1
    40    33    32    1
    41    33    34    2
    42    80    79    2
    43    42    41    1
    44    70    71    1
    45    79    78    1
    46    32    35    1
    47    32    31    1
    48    41    39   ar
    49    62    63    1
    50    73    72    2
    51    63    66    1
    52    36    35    1
    53    36    37   ar
    54    71    72    1
    55    71    74    1
    56    72    77   am
    57    19    20    1
    58    77    78    1
    59    90    91    1
    60    78    81    1
    61    39    37   ar
    62    68    67    2
    63    91    92    1
    64    66    67    1
    65    75    74    1
    66    81    82    1
    67    74    76    1
    68    20    22   ar
    69    20    21   ar
    70    67    69   am
    71    12    11    2
    72    92    94   am
    73    92    93    2
    74     7     6    1
    75    11    10    1
    76    82    83    1
    77     1     2    1
    78     6     5    1
    79     6     8    1
    80    85    83   am
    81    83    84    2
    82     4     3    2
    83     5     2    1
    84    13    10    1
    85     2     3    1
    86    10     9    1
