@<TRIPOS>MOLECULE
tmp/1ukiA01.pdb
 110 102 0 0 0
SMALL
GASTEIGER

@<TRIPOS>ATOM
      1  N          0.7650   46.7680   30.3430 N.3    24  ILE24      -0.1231
      2  CA         2.0800   46.2180   30.0340 C.3    24  ILE24       0.1692
      3  C          1.9570   45.7050   28.6010 C.2    24  ILE24       0.2592
      4  O          2.9460   45.4500   27.9060 O.2    24  ILE24      -0.2718
      5  CB         2.4290   45.0260   30.9630 C.3    24  ILE24       0.0266
      6  CG1        1.3520   43.9320   30.8410 C.3    24  ILE24       0.0019
      7  CG2        2.5870   45.5240   32.4080 C.3    24  ILE24       0.0020
      8  CD1        1.6020   42.7010   31.6680 C.3    24  ILE24       0.0001
      9  N          0.7030   45.5750   28.1790 N.am   25  GLY25      -0.1957
     10  CA         0.3870   45.0870   26.8530 C.3    25  GLY25       0.1869
     11  C          0.1610   46.1870   25.8410 C.2    25  GLY25       0.2309
     12  O         -0.9210   46.7650   25.7390 O.2    25  GLY25      -0.2863
     13  N         -3.0040   44.6070   27.1250 N.3    32  VAL32      -0.1245
     14  CA        -3.0100   43.7180   28.2770 C.3    32  VAL32       0.1561
     15  C         -2.5310   44.4390   29.5460 C.2    32  VAL32       0.2260
     16  O         -1.4830   45.0900   29.5460 O.2    32  VAL32      -0.2867
     17  CB        -2.1260   42.4700   28.0190 C.3    32  VAL32       0.0252
     18  CG1       -2.0890   41.5870   29.2610 C.3    32  VAL32       0.0019
     19  CG2       -2.6710   41.6840   26.8540 C.3    32  VAL32       0.0019
     20  N         -3.5780   38.4130   34.3620 N.3    45  ALA45      -0.1245
     21  CA        -3.3260   39.2580   33.1940 C.3    45  ALA45       0.1562
     22  C         -4.6300   39.3840   32.4050 C.2    45  ALA45       0.2260
     23  O         -5.1580   38.3860   31.9030 O.2    45  ALA45      -0.2867
     24  CB        -2.2450   38.6480   32.3280 C.3    45  ALA45       0.0290
     25  N         -6.6010   40.9290   29.1810 N.3    47  LYS47      -0.1245
     26  CA        -6.4280   41.4570   27.8190 C.3    47  LYS47       0.1561
     27  C         -7.7650   41.7510   27.1720 C.2    47  LYS47       0.2260
     28  O         -8.6030   40.8580   27.0330 O.2    47  LYS47      -0.2867
     29  CB        -5.6990   40.4780   26.9120 C.3    47  LYS47       0.0271
     30  CG        -5.8060   40.8550   25.4410 C.3    47  LYS47       0.0035
     31  CD        -5.0700   39.8570   24.5820 C.3    47  LYS47       0.0206
     32  CE        -5.2000   40.1800   23.1010 C.3    47  LYS47       0.1093
     33  NZ        -4.3920   39.2480   22.2430 N.3    47  LYS47      -0.1314
     34  N          0.7600   29.7920   28.1740 N.3    78  ILE78      -0.1245
     35  CA        -0.0740   30.8040   28.8420 C.3    78  ILE78       0.1561
     36  C         -1.4860   30.2580   29.0590 C.2    78  ILE78       0.2260
     37  O         -2.2890   30.1780   28.1230 O.2    78  ILE78      -0.2867
     38  CB        -0.1640   32.1020   27.9840 C.3    78  ILE78       0.0252
     39  CG1       -1.2110   33.0690   28.5510 C.3    78  ILE78       0.0019
     40  CG2       -0.5460   31.7400   26.5540 C.3    78  ILE78       0.0019
     41  CD1       -0.8250   33.6990   29.8450 C.3    78  ILE78       0.0001
     42  N         -5.8510   35.6290   32.1620 N.3   100  MET100     -0.1230
     43  CA        -4.9690   34.4840   32.0280 C.3   100  MET100      0.1702
     44  C         -3.8160   34.7890   32.9620 C.2   100  MET100      0.2592
     45  O         -3.6780   35.9320   33.4080 O.2   100  MET100     -0.2718
     46  CB        -4.5140   34.3340   30.5770 C.3   100  MET100      0.0401
     47  CG        -4.2160   35.6540   29.9040 C.3   100  MET100      0.0596
     48  SD        -3.8460   35.5500   28.1460 S.3   100  MET100     -0.1393
     49  CE        -5.1370   36.5290   27.5220 C.3   100  MET100      0.0692
     50  N         -3.0020   33.7870   33.2740 N.am  101  GLU101     -0.1966
     51  CA        -1.9080   33.9900   34.2140 C.3   101  GLU101      0.1733
     52  C         -0.9000   35.0710   33.8690 C.2   101  GLU101      0.2616
     53  O         -0.6280   35.3510   32.7020 O.2   101  GLU101     -0.2715
     54  CB        -1.1890   32.6710   34.4800 C.3   101  GLU101      0.0429
     55  CG        -1.0830   31.7540   33.2820 C.3   101  GLU101      0.1163
     56  CD        -0.6070   30.3580   33.6670 C.2   101  GLU101      0.3649
     57  OE1       -0.5710   29.4730   32.7780 O.co2 101  GLU101     -0.2457
     58  OE2       -0.2700   30.1490   34.8590 O.co2 101  GLU101     -0.2457
     59  N         -0.3460   35.6710   34.9190 N.am  102  LEU102     -0.1963
     60  CA         0.6300   36.7470   34.7900 C.3   102  LEU102      0.1728
     61  C          2.0560   36.2840   35.0740 C.2   102  LEU102      0.2616
     62  O          2.3770   35.8420   36.1800 O.2   102  LEU102     -0.2715
     63  CB         0.2620   37.8950   35.7410 C.3   102  LEU102      0.0311
     64  CG         1.2300   39.0770   35.8430 C.3   102  LEU102      0.0022
     65  CD1        1.3320   39.7920   34.5180 C.3   102  LEU102      0.0001
     66  CD2        0.7350   40.0340   36.9050 C.3   102  LEU102      0.0001
     67  N          2.9100   36.3820   34.0640 N.am  103  MET103     -0.1963
     68  CA         4.2930   36.0010   34.2080 C.3   103  MET103      0.1736
     69  C          5.1200   37.2420   34.4700 C.2   103  MET103      0.2616
     70  O          4.6930   38.3530   34.1770 O.2   103  MET103     -0.2715
     71  CB         4.7520   35.2890   32.9580 C.3   103  MET103      0.0427
     72  CG         4.1040   33.9330   32.8400 C.3   103  MET103      0.0599
     73  SD         4.5260   32.8860   34.2620 S.3   103  MET103     -0.1393
     74  CE         5.5840   31.6520   33.4870 C.3   103  MET103      0.0692
     75  N          6.3040   37.0430   35.0340 N.am  104  ASP104     -0.1957
     76  CA         7.1860   38.1440   35.3940 C.3   104  ASP104      0.1840
     77  C          7.8500   38.9230   34.2490 C.2   104  ASP104      0.2622
     78  O          8.0200   40.1420   34.3620 O.2   104  ASP104     -0.2715
     79  CB         8.2310   37.6310   36.3930 C.3   104  ASP104      0.1450
     80  CG         7.6100   37.2450   37.7370 C.2   104  ASP104      0.3671
     81  OD1        6.4220   36.8540   37.7490 O.co2 104  ASP104     -0.2456
     82  OD2        8.3030   37.3240   38.7790 O.co2 104  ASP104     -0.2456
     83  N          8.2140   38.2480   33.1550 N.am  105  ALA105     -0.1963
     84  CA         8.8430   38.9240   32.0060 C.3   105  ALA105      0.1728
     85  C          9.3230   37.9410   30.9480 C.2   105  ALA105      0.2616
     86  O          9.5860   36.7840   31.2580 O.2   105  ALA105     -0.2715
     87  CB        10.0060   39.7750   32.4730 C.3   105  ALA105      0.0334
     88  N          9.4490   38.3980   29.7040 N.am  106  ASN106     -0.1972
     89  CA         9.8960   37.5260   28.6220 C.3   106  ASN106      0.1688
     90  C         11.3880   37.2590   28.6930 C.2   106  ASN106      0.2292
     91  O         12.0610   37.6700   29.6330 O.2   106  ASN106     -0.2864
     92  CB         9.5710   38.1420   27.2690 C.3   106  ASN106      0.1181
     93  CG        10.2070   39.5150   27.0840 C.2   106  ASN106      0.2629
     94  OD1       11.3770   39.7260   27.4260 O.2   106  ASN106     -0.2716
     95  ND2        9.4460   40.4490   26.5250 N.am  106  ASN106     -0.0877
     96  N          7.4220   34.2900   27.9990 N.3   150  VAL150     -0.1245
     97  CA         7.4960   34.7740   29.3680 C.3   150  VAL150      0.1561
     98  C          8.0540   33.7800   30.3730 C.2   150  VAL150      0.2260
     99  O          7.8840   32.5710   30.2400 O.2   150  VAL150     -0.2867
    100  CB         6.0990   35.2510   29.8580 C.3   150  VAL150      0.0252
    101  CG1        5.7030   36.5380   29.1530 C.3   150  VAL150      0.0019
    102  CG2        5.0740   34.1930   29.5790 C.3   150  VAL150      0.0019
    103  N          3.4420   32.7680   25.2290 N.3   160  LEU160     -0.1245
    104  CA         2.3770   33.7520   25.1860 C.3   160  LEU160      0.1561
    105  C          1.2690   33.5520   24.1670 C.2   160  LEU160      0.2260
    106  O          0.1020   33.4210   24.5390 O.2   160  LEU160     -0.2867
    107  CB         2.9640   35.1530   25.0010 C.3   160  LEU160      0.0270
    108  CG         3.1910   36.0010   26.2510 C.3   160  LEU160      0.0019
    109  CD1        3.5150   37.4220   25.8560 C.3   160  LEU160      0.0001
    110  CD2        1.9380   35.9690   27.0980 C.3   160  LEU160      0.0001
@<TRIPOS>BOND
     1    33    32    1
     2    32    31    1
     3   105   106    2
     4   105   104    1
     5    31    30    1
     6   107   104    1
     7   107   108    1
     8   104   103    1
     9    30    29    1
    10    12    11    2
    11    11    10    1
    12   109   108    1
    13   108   110    1
    14    95    93   am
    15    40    38    1
    16    10     9    1
    17    19    17    1
    18    29    26    1
    19    28    27    2
    20    93    92    1
    21    93    94    2
    22    13    14    1
    23    27    26    1
    24    92    89    1
    25    49    48    1
    26    26    25    1
    27     4     3    2
    28    38    39    1
    29    38    35    1
    30    96    97    1
    31    17    14    1
    32    17    18    1
    33    37    36    2
    34    48    47    1
    35    34    35    1
    36     9     3   am
    37    14    15    1
    38    39    41    1
    39     3     2    1
    40    89    90    1
    41    89    88    1
    42    90    91    2
    43    35    36    1
    44   101   100    1
    45    97   100    1
    46    97    98    1
    47    15    16    2
    48   102   100    1
    49    88    85   am
    50    47    46    1
    51     2     1    1
    52     2     5    1
    53    99    98    2
    54    46    43    1
    55     6     5    1
    56     6     8    1
    57    85    86    2
    58    85    84    1
    59     5     7    1
    60    23    22    2
    61    84    87    1
    62    84    83    1
    63    43    42    1
    64    43    44    1
    65    24    21    1
    66    22    21    1
    67    53    52    2
    68    57    56   ar
    69    72    71    1
    70    72    73    1
    71    71    68    1
    72    44    50   am
    73    44    45    2
    74    83    77   am
    75    21    20    1
    76    50    51    1
    77    55    56    1
    78    55    54    1
    79    74    73    1
    80    56    58   ar
    81    52    51    1
    82    52    59   am
    83    67    68    1
    84    67    61   am
    85    70    69    2
    86    68    69    1
    87    51    54    1
    88    77    78    2
    89    77    76    1
    90    69    75   am
    91    65    64    1
    92    60    59    1
    93    60    61    1
    94    60    63    1
    95    75    76    1
    96    61    62    2
    97    76    79    1
    98    63    64    1
    99    64    66    1
   100    79    80    1
   101    80    81   ar
   102    80    82   ar
