@<TRIPOS>MOLECULE
tmp/1uktB00.pdb
 222 217 0 0 0
SMALL
GASTEIGER

@<TRIPOS>ATOM
      1  N          0.1110   -4.7470  -21.9470 N.3    47  ARG47      -0.1245
      2  CA         0.6270   -4.4920  -23.3000 C.3    47  ARG47       0.1563
      3  C         -0.4830   -4.0050  -24.2490 C.2    47  ARG47       0.2260
      4  O         -0.2050   -3.5550  -25.3640 O.2    47  ARG47      -0.2867
      5  CB         1.2770   -5.7650  -23.8470 C.3    47  ARG47       0.0307
      6  CG         2.7820   -5.6770  -24.1020 C.3    47  ARG47       0.0489
      7  CD         3.6360   -6.0870  -22.9050 C.3    47  ARG47       0.2205
      8  NE         5.0790   -6.0910  -23.2070 N.pl3  47  ARG47      -0.0865
      9  CZ         5.7910   -5.0170  -23.5580 C.cat  47  ARG47       0.5346
     10  NH1        5.2150   -3.8260  -23.6640 N.pl3  47  ARG47       0.1354
     11  NH2        7.0940   -5.1200  -23.7860 N.pl3  47  ARG47       0.1354
     12  N          4.7200   -9.9420  -30.6660 N.3    89  TYR89      -0.1227
     13  CA         6.1410  -10.1220  -30.4790 C.3    89  TYR89       0.1736
     14  C          6.3140  -11.3070  -29.5490 C.2    89  TYR89       0.2596
     15  O          5.8080  -11.2980  -28.4270 O.2    89  TYR89      -0.2718
     16  CB         6.7720   -8.8920  -29.8410 C.3    89  TYR89       0.0548
     17  CG         6.9310   -7.7060  -30.7600 C.ar   89  TYR89      -0.0200
     18  CD1        7.7080   -7.7870  -31.9140 C.ar   89  TYR89      -0.0009
     19  CD2        6.3270   -6.4850  -30.4550 C.ar   89  TYR89      -0.0009
     20  CE1        7.8780   -6.6770  -32.7380 C.ar   89  TYR89       0.0417
     21  CE2        6.4930   -5.3720  -31.2690 C.ar   89  TYR89       0.0417
     22  CZ         7.2640   -5.4730  -32.4020 C.ar   89  TYR89       0.1957
     23  OH         7.4150   -4.3620  -33.1870 O.3    89  TYR89      -0.2866
     24  N          6.9310  -12.3620  -30.0770 N.am   90  SER90      -0.1952
     25  CA         7.2300  -13.5800  -29.3230 C.3    90  SER90       0.1924
     26  C          6.1010  -14.1320  -28.4280 C.2    90  SER90       0.2314
     27  O          6.2710  -14.2970  -27.2180 O.2    90  SER90      -0.2863
     28  CB         8.4980  -13.3410  -28.4990 C.3    90  SER90       0.2116
     29  OG         9.4340  -12.5660  -29.2400 O.3    90  SER90      -0.2180
     30  N          0.6940   -6.8120  -28.9180 N.3    94  ASN94      -0.1240
     31  CA         1.1120   -5.4380  -28.6400 C.3    94  ASN94       0.1653
     32  C          0.3210   -4.4160  -29.4510 C.2    94  ASN94       0.2266
     33  O          0.2400   -4.5320  -30.6660 O.2    94  ASN94      -0.2867
     34  CB         2.5880   -5.2620  -29.0460 C.3    94  ASN94       0.1155
     35  CG         3.5760   -5.5270  -27.9140 C.2    94  ASN94       0.2627
     36  OD1        4.6310   -4.8910  -27.8500 O.2    94  ASN94      -0.2716
     37  ND2        3.2580   -6.4670  -27.0370 N.am   94  ASN94      -0.0877
     38  N          0.6390    3.5340  -25.8490 N.3    98  HIS98      -0.1241
     39  CA         1.5400    4.6100  -25.4040 C.3    98  HIS98       0.1621
     40  C          1.6240    5.8450  -26.3110 C.2    98  HIS98       0.2264
     41  O          2.3330    6.8090  -25.9970 O.2    98  HIS98      -0.2867
     42  CB         2.9410    4.0490  -25.1940 C.3    98  HIS98       0.0745
     43  CG         3.3850    3.1560  -26.3020 C.ar   98  HIS98       0.0817
     44  ND1        3.8090    3.6360  -27.5170 N.ar   98  HIS98      -0.2268
     45  CD2        3.3860    1.8050  -26.4090 C.ar   98  HIS98       0.1154
     46  CE1        4.0440    2.6230  -28.3310 C.ar   98  HIS98       0.1986
     47  NE2        3.7970    1.5020  -27.6810 N.ar   98  HIS98      -0.2212
     48  N          3.1840    6.2380  -29.0550 N.3   100  LEU100     -0.1231
     49  CA         4.4540    6.4170  -29.7690 C.3   100  LEU100      0.1693
     50  C          4.5770    5.8280  -31.1910 C.2   100  LEU100      0.2592
     51  O          5.6220    5.9700  -31.8490 O.2   100  LEU100     -0.2718
     52  CB         5.6270    5.9420  -28.8940 C.3   100  LEU100      0.0284
     53  CG         6.0450    6.7800  -27.6750 C.3   100  LEU100      0.0019
     54  CD1        7.0320    6.0130  -26.7880 C.3   100  LEU100      0.0001
     55  CD2        6.6590    8.0800  -28.1460 C.3   100  LEU100      0.0001
     56  N          3.5330    5.1710  -31.6750 N.am  101  TRP101     -0.1976
     57  CA         3.6050    4.5950  -33.0140 C.3   101  TRP101      0.1640
     58  C          2.8600    5.4810  -34.0010 C.2   101  TRP101      0.2290
     59  O          1.8380    5.1010  -34.5620 O.2   101  TRP101     -0.2864
     60  CB         3.0700    3.1570  -32.9880 C.3   101  TRP101      0.0576
     61  CG         3.9800    2.2180  -32.2270 C.ar  101  TRP101      0.0006
     62  CD1        5.2620    2.4740  -31.7980 C.ar  101  TRP101      0.0946
     63  CD2        3.6910    0.8670  -31.8390 C.ar  101  TRP101      0.0152
     64  NE1        5.7890    1.3650  -31.1740 N.ar  101  TRP101     -0.2442
     65  CE2        4.8450    0.3650  -31.1820 C.ar  101  TRP101      0.0810
     66  CE3        2.5760    0.0360  -31.9810 C.ar  101  TRP101      0.0012
     67  CZ2        4.9150   -0.9380  -30.6740 C.ar  101  TRP101      0.0191
     68  CZ3        2.6420   -1.2570  -31.4820 C.ar  101  TRP101      0.0001
     69  CH2        3.8040   -1.7300  -30.8330 C.ar  101  TRP101      0.0015
     70  N         10.6550    8.7230  -35.6030 N.3   140  HIS140     -0.1241
     71  CA        10.1910    7.5580  -36.3190 C.3   140  HIS140      0.1621
     72  C          8.6760    7.5580  -36.5130 C.2   140  HIS140      0.2264
     73  O          7.9860    8.4370  -35.9930 O.2   140  HIS140     -0.2867
     74  CB        10.5540    6.3500  -35.4660 C.3   140  HIS140      0.0745
     75  CG        10.0420    6.4290  -34.0540 C.ar  140  HIS140      0.0817
     76  ND1        8.7770    6.0090  -33.6920 N.ar  140  HIS140     -0.2268
     77  CD2       10.6350    6.8600  -32.9110 C.ar  140  HIS140      0.1154
     78  CE1        8.6120    6.1750  -32.3900 C.ar  140  HIS140      0.1986
     79  NE2        9.7240    6.6890  -31.8950 N.ar  140  HIS140     -0.2212
     80  N          6.5960    0.4170  -36.2080 N.3   143  PRO143     -0.2116
     81  CA         7.3380   -0.8170  -36.4900 C.3   143  PRO143      0.1372
     82  C          7.1400   -1.2360  -37.9480 C.2   143  PRO143      0.2244
     83  O          6.0170   -1.5330  -38.3640 O.2   143  PRO143     -0.2868
     84  CB         6.6920   -1.8250  -35.5410 C.3   143  PRO143      0.0268
     85  CG         6.3850   -1.0040  -34.3570 C.3   143  PRO143      0.0207
     86  CD         5.7750    0.2380  -34.9870 C.3   143  PRO143      0.0892
     87  N         23.8230    0.7160  -31.1130 N.3   183  PHE183     -0.1241
     88  CA        24.0740    1.7000  -30.0590 C.3   183  PHE183      0.1605
     89  C         25.5590    1.8910  -29.7940 C.2   183  PHE183      0.2264
     90  O         25.9320    2.4330  -28.7510 O.2   183  PHE183     -0.2867
     91  CB        23.3990    1.2900  -28.7430 C.3   183  PHE183      0.0534
     92  CG        21.8950    1.2780  -28.7960 C.ar  183  PHE183     -0.0203
     93  CD1       21.1910    0.0840  -28.7150 C.ar  183  PHE183     -0.0042
     94  CD2       21.1780    2.4650  -28.9050 C.ar  183  PHE183     -0.0042
     95  CE1       19.8040    0.0710  -28.7410 C.ar  183  PHE183     -0.0003
     96  CE2       19.7820    2.4590  -28.9310 C.ar  183  PHE183     -0.0003
     97  CZ        19.0970    1.2600  -28.8490 C.ar  183  PHE183     -0.0000
     98  N         15.9630    2.3380  -34.8030 N.3   194  LEU194     -0.1231
     99  CA        15.9370    1.9910  -33.3780 C.3   194  LEU194      0.1693
    100  C         15.0560    0.7590  -33.2710 C.2   194  LEU194      0.2592
    101  O         13.8280    0.8870  -33.2010 O.2   194  LEU194     -0.2718
    102  CB        15.2760    3.1050  -32.5560 C.3   194  LEU194      0.0284
    103  CG        16.1190    4.2150  -31.9370 C.3   194  LEU194      0.0019
    104  CD1       15.2350    5.0630  -31.0460 C.3   194  LEU194      0.0001
    105  CD2       17.2470    3.5970  -31.1310 C.3   194  LEU194      0.0001
    106  N         15.6710   -0.4230  -33.1990 N.am  195  TYR195     -0.1962
    107  CA        14.9240   -1.6830  -33.1440 C.3   195  TYR195      0.1771
    108  C         14.2020   -1.7130  -34.4960 C.2   195  TYR195      0.2620
    109  O         14.8160   -1.4090  -35.5290 O.2   195  TYR195     -0.2715
    110  CB        13.8610   -1.7050  -32.0280 C.3   195  TYR195      0.0574
    111  CG        14.3000   -1.3490  -30.6270 C.ar  195  TYR195     -0.0198
    112  CD1       14.9810   -2.2710  -29.8270 C.ar  195  TYR195     -0.0009
    113  CD2       13.9690   -0.1020  -30.0740 C.ar  195  TYR195     -0.0009
    114  CE1       15.3170   -1.9640  -28.5140 C.ar  195  TYR195      0.0417
    115  CE2       14.3020    0.2180  -28.7670 C.ar  195  TYR195      0.0417
    116  CZ        14.9760   -0.7150  -27.9900 C.ar  195  TYR195      0.1957
    117  OH        15.3110   -0.3930  -26.6950 O.3   195  TYR195     -0.2866
    118  N         12.9020   -2.0110  -34.4720 N.am  196  ASP196     -0.1957
    119  CA        12.0860   -2.0520  -35.6720 C.3   196  ASP196      0.1840
    120  C         11.1770   -0.8360  -35.6570 C.2   196  ASP196      0.2621
    121  O         10.0580   -0.8770  -35.1680 O.2   196  ASP196     -0.2715
    122  CB        11.2730   -3.3610  -35.7480 C.3   196  ASP196      0.1450
    123  CG        10.0890   -3.4040  -34.7870 C.2   196  ASP196      0.3671
    124  OD1        8.9870   -3.7920  -35.2440 O.co2 196  ASP196     -0.2456
    125  OD2       10.2370   -3.0450  -33.5940 O.co2 196  ASP196     -0.2456
    126  N         11.7030    0.2930  -36.0920 N.am  197  LEU197     -0.1977
    127  CA        10.9130    1.5040  -36.1150 C.3   197  LEU197      0.1596
    128  C         11.3970    2.2630  -37.3140 C.2   197  LEU197      0.2287
    129  O         12.5600    2.6820  -37.3490 O.2   197  LEU197     -0.2864
    130  CB        11.1100    2.3290  -34.8290 C.3   197  LEU197      0.0297
    131  CG        10.4810    1.8490  -33.5050 C.3   197  LEU197      0.0022
    132  CD1       10.9940    2.6940  -32.3230 C.3   197  LEU197      0.0001
    133  CD2        8.9410    1.8910  -33.5790 C.3   197  LEU197      0.0001
    134  N         10.8330   13.0870  -27.8080 N.3   229  ASP229     -0.1225
    135  CA        11.3070   11.7040  -27.7370 C.3   229  ASP229      0.1805
    136  C         12.6170   11.4600  -28.4810 C.2   229  ASP229      0.2597
    137  O         12.9040   12.1040  -29.4920 O.2   229  ASP229     -0.2718
    138  CB        10.2280   10.7720  -28.3050 C.3   229  ASP229      0.1424
    139  CG        10.5780    9.3030  -28.1680 C.2   229  ASP229      0.3668
    140  OD1       10.1970    8.7000  -27.1510 O.co2 229  ASP229     -0.2456
    141  OD2       11.2080    8.7490  -29.0890 O.co2 229  ASP229     -0.2456
    142  N         13.3890   10.5020  -27.9640 N.am  230  ALA230     -0.1979
    143  CA        14.6800   10.0890  -28.5220 C.3   230  ALA230      0.1597
    144  C         15.5100   11.2240  -29.1100 C.2   230  ALA230      0.2287
    145  O         15.8670   11.1680  -30.2830 O.2   230  ALA230     -0.2864
    146  CB        14.4600    8.9880  -29.5830 C.3   230  ALA230      0.0319
    147  N         18.5130   11.8210  -28.5660 N.3   232  LYS232     -0.1231
    148  CA        19.8390   11.2760  -28.8170 C.3   232  LYS232      0.1693
    149  C         19.9330   10.5100  -30.1460 C.2   232  LYS232      0.2592
    150  O         21.0290   10.2440  -30.6250 O.2   232  LYS232     -0.2718
    151  CB        20.2120   10.3580  -27.6510 C.3   232  LYS232      0.0285
    152  CG        21.6350    9.8390  -27.6660 C.3   232  LYS232      0.0035
    153  CD        21.8230    8.8360  -26.5520 C.3   232  LYS232      0.0206
    154  CE        23.2630    8.4040  -26.4540 C.3   232  LYS232      0.1093
    155  NZ        23.3690    7.4750  -25.3120 N.3   232  LYS232     -0.1314
    156  N         18.7860   10.2270  -30.7570 N.am  233  HIS233     -0.1976
    157  CA        18.7230    9.4730  -32.0060 C.3   233  HIS233      0.1656
    158  C         18.2550   10.2690  -33.2250 C.2   233  HIS233      0.2291
    159  O         17.7280    9.7040  -34.2060 O.2   233  HIS233     -0.2864
    160  CB        17.8590    8.2390  -31.7970 C.3   233  HIS233      0.0771
    161  CG        18.2890    7.4170  -30.6290 C.ar  233  HIS233      0.0820
    162  ND1       19.3620    6.5540  -30.6790 N.ar  233  HIS233     -0.2267
    163  CD2       17.8340    7.3720  -29.3560 C.ar  233  HIS233      0.1154
    164  CE1       19.5550    6.0210  -29.4890 C.ar  233  HIS233      0.1986
    165  NE2       18.6410    6.5050  -28.6670 N.ar  233  HIS233     -0.2212
    166  N         14.2300   13.6110  -23.9310 N.3   257  GLU257     -0.1245
    167  CA        14.7740   12.5690  -23.0640 C.3   257  GLU257      0.1567
    168  C         16.0740   12.0310  -23.6700 C.2   257  GLU257      0.2260
    169  O         16.1450   11.7770  -24.8760 O.2   257  GLU257     -0.2867
    170  CB        13.7840   11.4080  -22.8760 C.3   257  GLU257      0.0388
    171  CG        14.4530   10.1780  -22.2530 C.3   257  GLU257      0.1160
    172  CD        13.5100    9.0780  -21.8630 C.2   257  GLU257      0.3649
    173  OE1       12.7370    8.6200  -22.7220 O.co2 257  GLU257     -0.2457
    174  OE2       13.5650    8.6380  -20.6920 O.co2 257  GLU257     -0.2457
    175  N         18.4380    9.2370  -22.0730 N.3   259  PHE259     -0.1241
    176  CA        18.6910    8.3000  -20.9810 C.3   259  PHE259      0.1605
    177  C         20.1270    8.2830  -20.4430 C.2   259  PHE259      0.2264
    178  O         21.0790    8.3060  -21.2180 O.2   259  PHE259     -0.2867
    179  CB        18.2610    6.8880  -21.4040 C.3   259  PHE259      0.0534
    180  CG        18.0130    5.9460  -20.2480 C.ar  259  PHE259     -0.0203
    181  CD1       16.7510    5.8490  -19.6680 C.ar  259  PHE259     -0.0042
    182  CD2       19.0410    5.1650  -19.7250 C.ar  259  PHE259     -0.0042
    183  CE1       16.5170    4.9890  -18.5760 C.ar  259  PHE259     -0.0003
    184  CE2       18.8130    4.2980  -18.6280 C.ar  259  PHE259     -0.0003
    185  CZ        17.5530    4.2170  -18.0590 C.ar  259  PHE259     -0.0000
    186  N          8.2590    6.6340  -16.6620 N.3   327  HIS327     -0.1226
    187  CA         7.9660    5.5400  -17.5930 C.3   327  HIS327      0.1752
    188  C          9.1780    4.7070  -18.0530 C.2   327  HIS327      0.2596
    189  O          9.0080    3.5800  -18.5140 O.2   327  HIS327     -0.2718
    190  CB         7.2740    6.1060  -18.8240 C.3   327  HIS327      0.0759
    191  CG         8.1370    7.0400  -19.6120 C.ar  327  HIS327      0.0818
    192  ND1        8.7770    8.1160  -19.0410 N.ar  327  HIS327     -0.2268
    193  CD2        8.5040    7.0300  -20.9150 C.ar  327  HIS327      0.1154
    194  CE1        9.5040    8.7280  -19.9580 C.ar  327  HIS327      0.1986
    195  NE2        9.3580    8.0910  -21.1030 N.ar  327  HIS327     -0.2212
    196  N         10.3870    5.2710  -17.9640 N.am  328  ASP328     -0.1974
    197  CA        11.5930    4.5660  -18.4040 C.3   328  ASP328      0.1709
    198  C         12.3780    3.8760  -17.3020 C.2   328  ASP328      0.2293
    199  O         13.5240    3.5030  -17.5070 O.2   328  ASP328     -0.2864
    200  CB        12.5150    5.4980  -19.2250 C.3   328  ASP328      0.1436
    201  CG        12.2820    5.3840  -20.7390 C.2   328  ASP328      0.3671
    202  OD1       12.8440    6.1890  -21.5030 O.co2 328  ASP328     -0.2456
    203  OD2       11.5510    4.4750  -21.1860 O.co2 328  ASP328     -0.2456
    204  N          9.1550   -1.7440  -17.8510 N.3   371  ASP371     -0.1239
    205  CA         8.2480   -1.7780  -18.9930 C.3   371  ASP371      0.1674
    206  C          7.7670   -3.1950  -19.2640 C.2   371  ASP371      0.2266
    207  O          8.5880   -4.0880  -19.4530 O.2   371  ASP371     -0.2867
    208  CB         9.0150   -1.2430  -20.2050 C.3   371  ASP371      0.1410
    209  CG         8.1370   -0.9810  -21.4120 C.2   371  ASP371      0.3668
    210  OD1        8.7090   -0.6660  -22.4770 O.co2 371  ASP371     -0.2456
    211  OD2        6.8980   -1.0670  -21.3060 O.co2 371  ASP371     -0.2456
    212  N          3.8670    1.1130  -15.9130 N.3   375  ARG375     -0.1245
    213  CA         2.6420    1.7500  -16.3610 C.3   375  ARG375      0.1563
    214  C          1.3060    0.9850  -16.2160 C.2   375  ARG375      0.2260
    215  O          0.6110    0.7290  -17.1990 O.2   375  ARG375     -0.2867
    216  CB         2.8290    2.3450  -17.7740 C.3   375  ARG375      0.0307
    217  CG         3.1690    1.3950  -18.9100 C.3   375  ARG375      0.0489
    218  CD         4.5970    0.8600  -18.8680 C.3   375  ARG375      0.2205
    219  NE         5.6450    1.8220  -19.2210 N.pl3 375  ARG375     -0.0865
    220  CZ         6.1000    2.0510  -20.4570 C.cat 375  ARG375      0.5346
    221  NH1        5.5970    1.4140  -21.5110 N.pl3 375  ARG375      0.1354
    222  NH2        7.1690    2.8170  -20.6280 N.pl3 375  ARG375      0.1354
@<TRIPOS>BOND
     1    83    82    2
     2    82    81    1
     3   129   128    2
     4   128   127    1
     5    72    71    1
     6    72    73    2
     7    81    80    1
     8    81    84    1
     9    71    70    1
    10    71    74    1
    11    80    86    1
    12   127   126    1
    13   127   130    1
    14   126   120   am
    15   122   119    1
    16   122   123    1
    17   119   120    1
    18   119   118    1
    19   120   121    2
    20    84    85    1
    21   109   108    2
    22    74    75    1
    23   124   123   ar
    24    86    85    1
    25   130   131    1
    26    98    99    1
    27   123   125   ar
    28    59    58    2
    29   108   118   am
    30   108   107    1
    31   159   158    2
    32    75    76   ar
    33    75    77   ar
    34    58    57    1
    35    76    78   ar
    36   133   131    1
    37   131   132    1
    38    99   100    1
    39    99   102    1
    40   100   101    2
    41   100   106   am
    42   158   157    1
    43   106   107    1
    44    23    22    1
    45   107   110    1
    46    57    60    1
    47    57    56    1
    48    60    61    1
    49    77    79   ar
    50    20    22   ar
    51    20    18   ar
    52   102   103    1
    53    22    21   ar
    54    78    79   ar
    55    61    63   ar
    56    61    62   ar
    57   110   111    1
    58   157   160    1
    59   157   156    1
    60    66    63   ar
    61    66    68   ar
    62   103   105    1
    63   103   104    1
    64    18    17   ar
    65    51    50    2
    66    63    65   ar
    67    62    64   ar
    68   160   161    1
    69    56    50   am
    70    68    69   ar
    71    21    19   ar
    72    50    49    1
    73    65    64   ar
    74    65    67   ar
    75    87    88    1
    76    69    67   ar
    77    17    19   ar
    78    17    16    1
    79   156   149   am
    80   162   161   ar
    81   162   164   ar
    82    33    32    2
    83    12    13    1
    84   161   163   ar
    85   111   113   ar
    86   111   112   ar
    87   150   149    2
    88    13    16    1
    89    13    14    1
    90   145   144    2
    91   149   148    1
    92    24    14   am
    93    24    25    1
    94   113   115   ar
    95    88    89    1
    96    88    91    1
    97   112   114   ar
    98    89    90    2
    99    49    48    1
   100    49    52    1
   101   146   143    1
   102    14    15    2
   103   137   136    2
   104   164   165   ar
   105    32    31    1
   106   163   165   ar
   107    25    28    1
   108    25    26    1
   109    29    28    1
   110   144   143    1
   111   141   139   ar
   112    34    31    1
   113    34    35    1
   114    96    94   ar
   115    96    97   ar
   116    30    31    1
   117    94    92   ar
   118    52    53    1
   119    97    95   ar
   120   148   147    1
   121   148   151    1
   122    92    91    1
   123    92    93   ar
   124   115   116   ar
   125    95    93   ar
   126   143   142    1
   127   114   116   ar
   128   136   142   am
   129   136   135    1
   130    26    27    2
   131    46    47   ar
   132    46    44   ar
   133   138   139    1
   134   138   135    1
   135   139   140   ar
   136    55    53    1
   137   116   117    1
   138    35    36    2
   139    35    37   am
   140   134   135    1
   141    47    45   ar
   142    53    54    1
   143   152   151    1
   144   152   153    1
   145    44    43   ar
   146   153   154    1
   147   154   155    1
   148    45    43   ar
   149    40    41    2
   150    40    39    1
   151    43    42    1
   152    38    39    1
   153    39    42    1
   154     4     3    2
   155   169   168    2
   156     3     2    1
   157     6     5    1
   158     6     7    1
   159   166   167    1
   160     5     2    1
   161    11     9    1
   162   168   167    1
   163    10     9    1
   164     9     8    2
   165     2     1    1
   166     8     7    1
   167   167   170    1
   168   170   171    1
   169   173   172   ar
   170   210   209   ar
   171   171   172    1
   172   175   176    1
   173   172   174   ar
   174   221   220    1
   175   202   201   ar
   176   209   211   ar
   177   209   208    1
   178   179   176    1
   179   179   180    1
   180   178   177    2
   181   203   201   ar
   182   195   193   ar
   183   195   194   ar
   184   176   177    1
   185   193   191   ar
   186   201   200    1
   187   222   220    1
   188   220   219    2
   189   180   182   ar
   190   180   181   ar
   191   208   205    1
   192   194   192   ar
   193   182   184   ar
   194   181   183   ar
   195   191   192   ar
   196   191   190    1
   197   207   206    2
   198   206   205    1
   199   200   197    1
   200   219   218    1
   201   205   204    1
   202   217   218    1
   203   217   216    1
   204   190   187    1
   205   184   185   ar
   206   183   185   ar
   207   189   188    2
   208   197   196    1
   209   197   198    1
   210   188   196   am
   211   188   187    1
   212   216   213    1
   213   187   186    1
   214   199   198    2
   215   215   214    2
   216   213   214    1
   217   213   212    1
