@<TRIPOS>MOLECULE
tmp/1ukvB00.pdb
 157 151 0 0 0
SMALL
GASTEIGER

@<TRIPOS>ATOM
      1  N         17.8400  -33.3900    4.4980 N.3    15  SER15      -0.1202
      2  CA        17.2000  -32.4580    5.4190 C.3    15  SER15       0.2020
      3  C         17.2430  -31.0320    4.8710 C.2    15  SER15       0.2619
      4  O         18.2840  -30.6640    4.3130 O.2    15  SER15      -0.2717
      5  CB        17.9670  -32.4500    6.7430 C.3    15  SER15       0.2103
      6  OG        17.6300  -33.6070    7.4610 O.3    15  SER15      -0.2182
      7  N         16.1450  -30.2880    5.0390 N.am   16  GLY16      -0.1942
      8  CA        16.1470  -28.8800    4.6610 C.3    16  GLY16       0.2014
      9  C         15.7920  -28.5180    3.2460 C.2    16  GLY16       0.2639
     10  O         15.7330  -27.3390    2.9230 O.2    16  GLY16      -0.2714
     11  N         15.5380  -29.5050    2.3960 N.am   17  VAL17      -0.1963
     12  CA        15.2080  -29.1840    1.0090 C.3    17  VAL17       0.1727
     13  C         13.7770  -28.7410    0.8110 C.2    17  VAL17       0.2617
     14  O         13.4870  -28.1840   -0.2710 O.2    17  VAL17      -0.2715
     15  CB        15.5010  -30.3870    0.0570 C.3    17  VAL17       0.0290
     16  CG1       16.9770  -30.7620    0.1620 C.3    17  VAL17       0.0023
     17  CG2       14.5380  -31.6050    0.3630 C.3    17  VAL17       0.0023
     18  N         12.8990  -28.9590    1.7800 N.am   18  GLY18      -0.1940
     19  CA        11.5190  -28.5590    1.6870 C.3    18  GLY18       0.2014
     20  C         10.4740  -29.6350    1.5300 C.2    18  GLY18       0.2639
     21  O          9.3680  -29.3800    1.0790 O.2    18  GLY18      -0.2714
     22  N         10.8060  -30.8660    1.9280 N.am   19  LYS19      -0.1963
     23  CA         9.8390  -31.9660    1.8170 C.3    19  LYS19       0.1728
     24  C          8.5530  -31.7230    2.6410 C.2    19  LYS19       0.2617
     25  O          7.4500  -31.8620    2.1270 O.2    19  LYS19      -0.2715
     26  CB        10.5060  -33.2730    2.2780 C.3    19  LYS19       0.0311
     27  CG        11.6750  -33.6850    1.3840 C.3    19  LYS19       0.0038
     28  CD        12.3890  -34.9850    1.8450 C.3    19  LYS19       0.0206
     29  CE        12.8610  -34.9370    3.2930 C.3    19  LYS19       0.1093
     30  NZ        13.8700  -33.8800    3.5600 N.3    19  LYS19      -0.1314
     31  N          8.7020  -31.3530    3.9210 N.am   20  SER20      -0.1936
     32  CA         7.5300  -31.1100    4.7260 C.3    20  SER20       0.2055
     33  C          6.6930  -29.9320    4.1950 C.2    20  SER20       0.2643
     34  O          5.4760  -30.0210    4.1740 O.2    20  SER20      -0.2714
     35  CB         7.9690  -30.8650    6.1790 C.3    20  SER20       0.2130
     36  OG         8.6580  -32.0400    6.6720 O.3    20  SER20      -0.2179
     37  N          7.3710  -28.8710    3.7670 N.am   21  CYS21      -0.1967
     38  CA         6.6270  -27.7320    3.2150 C.3    21  CYS21       0.1712
     39  C          5.9400  -28.1310    1.9020 C.2    21  CYS21       0.2296
     40  O          4.8380  -27.6580    1.6560 O.2    21  CYS21      -0.2864
     41  CB         7.5850  -26.5710    2.9930 C.3    21  CYS21       0.0983
     42  SG         8.0180  -25.6860    4.5430 S.3    21  CYS21      -0.0798
     43  N          1.7300  -22.2680    3.5670 N.3    31  TYR31      -0.1227
     44  CA         3.1690  -22.2140    3.5770 C.3    31  TYR31       0.1736
     45  C          3.5790  -21.2870    4.6860 C.2    31  TYR31       0.2596
     46  O          3.0140  -20.1890    4.7680 O.2    31  TYR31      -0.2718
     47  CB         3.7910  -21.7270    2.2620 C.3    31  TYR31       0.0548
     48  CG         5.2930  -21.6310    2.3520 C.ar   31  TYR31      -0.0200
     49  CD1        6.1190  -22.7770    2.2140 C.ar   31  TYR31      -0.0009
     50  CD2        5.9300  -20.4150    2.6730 C.ar   31  TYR31      -0.0009
     51  CE1        7.4770  -22.6940    2.3960 C.ar   31  TYR31       0.0417
     52  CE2        7.2830  -20.3220    2.8470 C.ar   31  TYR31       0.0417
     53  CZ         8.0940  -21.4630    2.7200 C.ar   31  TYR31       0.1957
     54  OH         9.4370  -21.3680    2.9070 O.3    31  TYR31      -0.2866
     55  N          4.4640  -21.7550    5.5520 N.am   32  THR32      -0.1953
     56  CA         4.9540  -20.9580    6.6530 C.3    32  THR32       0.1897
     57  C          6.3940  -20.5780    6.4300 C.2    32  THR32       0.2313
     58  O          7.2300  -21.4600    6.2450 O.2    32  THR32      -0.2863
     59  CB         4.8300  -21.7530    7.9540 C.3    32  THR32       0.1794
     60  OG1        3.4640  -22.0990    8.1550 O.3    32  THR32      -0.2208
     61  CG2        5.3320  -20.9240    9.1350 C.3    32  THR32       0.0378
     62  N         10.2370  -19.7720    7.0970 N.3    34  ASP34      -0.1225
     63  CA        11.1530  -20.2970    8.1070 C.3    34  ASP34       0.1805
     64  C         10.4670  -21.3910    8.9070 C.2    34  ASP34       0.2597
     65  O         10.5490  -21.4050   10.1390 O.2    34  ASP34      -0.2718
     66  CB        11.6080  -19.1650    9.0300 C.3    34  ASP34       0.1424
     67  CG        12.3270  -18.0710    8.2770 C.2    34  ASP34       0.3668
     68  OD1       13.2110  -18.3800    7.4500 O.co2  34  ASP34      -0.2456
     69  OD2       12.0020  -16.8940    8.5370 O.co2  34  ASP34      -0.2456
     70  N          9.8110  -22.2990    8.1970 N.am   35  TYR35      -0.1976
     71  CA         9.0920  -23.3900    8.8240 C.3    35  TYR35       0.1639
     72  C          9.9280  -24.2150    9.7890 C.2    35  TYR35       0.2290
     73  O         11.0240  -24.6410    9.4310 O.2    35  TYR35      -0.2864
     74  CB         8.5590  -24.3060    7.7250 C.3    35  TYR35       0.0560
     75  CG         7.9160  -25.5720    8.2360 C.ar   35  TYR35      -0.0198
     76  CD1        6.6130  -25.5880    8.7200 C.ar   35  TYR35      -0.0009
     77  CD2        8.6220  -26.7720    8.1900 C.ar   35  TYR35      -0.0009
     78  CE1        6.0020  -26.7890    9.1570 C.ar   35  TYR35       0.0417
     79  CE2        8.0330  -27.9710    8.6220 C.ar   35  TYR35       0.0417
     80  CZ         6.7380  -27.9760    9.0940 C.ar   35  TYR35       0.1957
     81  OH         6.1250  -29.1490    9.4950 O.3    35  TYR35      -0.2866
     82  N          5.7610  -38.4830    5.0140 N.3    61  ASP61      -0.1225
     83  CA         6.9030  -37.6030    5.1870 C.3    61  ASP61       0.1805
     84  C          7.9210  -38.2840    6.1230 C.2    61  ASP61       0.2598
     85  O          7.5410  -39.2640    6.7980 O.2    61  ASP61      -0.2718
     86  CB         6.4000  -36.2590    5.7130 C.3    61  ASP61       0.1424
     87  CG         7.4330  -35.1410    5.5650 C.2    61  ASP61       0.3668
     88  OD1        8.4280  -35.2470    4.8240 O.co2  61  ASP61      -0.2456
     89  OD2        7.2200  -34.1050    6.2510 O.co2  61  ASP61      -0.2456
     90  N          9.1260  -37.7590    6.2100 N.am   62  THR62      -0.1953
     91  CA        10.2220  -38.4300    6.9060 C.3    62  THR62       0.1897
     92  C         10.3310  -38.2280    8.4140 C.2    62  THR62       0.2313
     93  O         11.1540  -38.9320    9.0050 O.2    62  THR62      -0.2863
     94  CB        11.5550  -37.9860    6.3330 C.3    62  THR62       0.1794
     95  OG1       11.7380  -36.5950    6.6460 O.3    62  THR62      -0.2208
     96  CG2       11.6020  -38.1940    4.8250 C.3    62  THR62       0.0378
     97  N         15.7850  -38.4120    8.1190 N.3    66  GLU66      -0.1245
     98  CA        16.8460  -38.3180    7.1390 C.3    66  GLU66       0.1567
     99  C         18.0410  -37.4830    7.6260 C.2    66  GLU66       0.2260
    100  O         19.0870  -37.5240    6.9720 O.2    66  GLU66      -0.2867
    101  CB        16.2830  -37.7090    5.8460 C.3    66  GLU66       0.0388
    102  CG        16.1010  -36.1580    5.8510 C.3    66  GLU66       0.1160
    103  CD        14.8060  -35.7010    6.4920 C.2    66  GLU66       0.3649
    104  OE1       14.3780  -34.5580    6.2200 O.co2  66  GLU66      -0.2457
    105  OE2       14.1660  -36.4580    7.2680 O.co2  66  GLU66      -0.2457
    106  N         13.3160  -28.3820   -5.5400 N.3   119  ASN119     -0.1225
    107  CA        12.5050  -27.3770   -4.8520 C.3   119  ASN119      0.1785
    108  C         13.2420  -26.0450   -4.6040 C.2   119  ASN119      0.2597
    109  O         14.4640  -25.9690   -4.7890 O.2   119  ASN119     -0.2718
    110  CB        12.0390  -28.0060   -3.5160 C.3   119  ASN119      0.1169
    111  CG        10.9670  -27.2060   -2.8230 C.2   119  ASN119      0.2627
    112  OD1        9.9830  -26.7820   -3.4360 O.2   119  ASN119     -0.2716
    113  ND2       11.1310  -27.0230   -1.4930 N.am  119  ASN119     -0.0877
    114  N         12.4640  -25.0650   -4.1330 N.am  120  LYS120     -0.1980
    115  CA        12.9100  -23.6910   -3.8460 C.3   120  LYS120      0.1596
    116  C         13.2560  -22.9370   -5.1490 C.2   120  LYS120      0.2287
    117  O         14.1970  -22.1280   -5.1480 O.2   120  LYS120     -0.2864
    118  CB        14.1060  -23.6690   -2.8840 C.3   120  LYS120      0.0298
    119  CG        13.8760  -24.5480   -1.6170 C.3   120  LYS120      0.0038
    120  CD        14.7800  -24.1080   -0.4740 C.3   120  LYS120      0.0206
    121  CE        14.7100  -25.0610    0.7340 C.3   120  LYS120      0.1093
    122  NZ        15.5950  -24.5720    1.8540 N.3   120  LYS120     -0.1314
    123  N         11.8550  -20.6220   -6.3540 N.3   122  ASP122     -0.1225
    124  CA        11.5690  -19.1910   -6.1950 C.3   122  ASP122      0.1805
    125  C         12.8640  -18.4280   -5.8810 C.2   122  ASP122      0.2597
    126  O         12.9040  -17.2040   -6.0810 O.2   122  ASP122     -0.2718
    127  CB        10.5460  -19.0000   -5.0740 C.3   122  ASP122      0.1424
    128  CG        10.9760  -19.6570   -3.7580 C.2   122  ASP122      0.3668
    129  OD1       10.9620  -20.9040   -3.6850 O.co2 122  ASP122     -0.2456
    130  OD2       11.3410  -18.9340   -2.8040 O.co2 122  ASP122     -0.2456
    131  N         13.8900  -19.1220   -5.4000 N.am  123  LEU123     -0.1979
    132  CA        15.1600  -18.4690   -5.0700 C.3   123  LEU123      0.1596
    133  C         16.0050  -18.3570   -6.3580 C.2   123  LEU123      0.2287
    134  O         17.0480  -19.0050   -6.4870 O.2   123  LEU123     -0.2864
    135  CB        15.8660  -19.2840   -3.9650 C.3   123  LEU123      0.0297
    136  CG        15.0900  -19.4190   -2.6410 C.3   123  LEU123      0.0022
    137  CD1       15.9320  -20.1940   -1.6520 C.3   123  LEU123      0.0001
    138  CD2       14.7100  -18.0410   -2.0460 C.3   123  LEU123      0.0001
    139  N          8.2040  -24.9090   -6.0670 N.3   149  SER149     -0.1202
    140  CA         8.3750  -23.9890   -4.9360 C.3   149  SER149      0.2020
    141  C          7.2150  -24.1750   -3.9820 C.2   149  SER149      0.2619
    142  O          6.0820  -23.8460   -4.3180 O.2   149  SER149     -0.2717
    143  CB         8.4380  -22.5180   -5.4040 C.3   149  SER149      0.2103
    144  OG         8.4320  -21.6700   -4.2420 O.3   149  SER149     -0.2182
    145  N          7.4540  -24.7640   -2.8090 N.am  150  ALA150     -0.1965
    146  CA         6.3850  -24.8490   -1.8470 C.3   150  ALA150      0.1728
    147  C          5.9830  -23.4070   -1.4270 C.2   150  ALA150      0.2616
    148  O          4.8150  -23.1670   -1.1380 O.2   150  ALA150     -0.2715
    149  CB         6.8790  -25.6540   -0.5920 C.3   150  ALA150      0.0334
    150  N          6.9640  -22.5020   -1.4430 N.am  151  LEU151     -0.1977
    151  CA         6.6940  -21.1010   -1.0500 C.3   151  LEU151      0.1596
    152  C          5.6850  -20.4030   -1.9620 C.2   151  LEU151      0.2287
    153  O          4.7310  -19.8690   -1.4330 O.2   151  LEU151     -0.2864
    154  CB         8.0230  -20.3350   -0.9850 C.3   151  LEU151      0.0297
    155  CG         7.9250  -18.8980   -0.3910 C.3   151  LEU151      0.0022
    156  CD1        9.2430  -18.5210    0.2000 C.3   151  LEU151      0.0001
    157  CD2        7.5000  -17.8840   -1.4900 C.3   151  LEU151      0.0001
@<TRIPOS>BOND
     1   134   133    2
     2   133   132    1
     3   123   124    1
     4   124   125    1
     5   124   127    1
     6   126   125    2
     7   139   140    1
     8   125   131   am
     9   106   107    1
    10   143   140    1
    11   143   144    1
    12   131   132    1
    13   116   117    2
    14   116   115    1
    15   127   128    1
    16   132   135    1
    17   140   141    1
    18   107   108    1
    19   107   110    1
    20   109   108    2
    21   108   114   am
    22   142   141    2
    23   114   115    1
    24   141   145   am
    25   135   136    1
    26   115   118    1
    27   128   129   ar
    28   128   130   ar
    29   110   111    1
    30   112   111    2
    31   118   119    1
    32   111   113   am
    33   145   146    1
    34   136   138    1
    35   136   137    1
    36   152   153    2
    37   152   151    1
    38   146   147    1
    39   146   149    1
    40   119   120    1
    41   157   155    1
    42   150   147   am
    43   150   151    1
    44   147   148    2
    45   151   154    1
    46   154   155    1
    47   120   121    1
    48   155   156    1
    49    14    13    2
    50    15    16    1
    51    15    17    1
    52    15    12    1
    53   121   122    1
    54    13    12    1
    55    13    18   am
    56    12    11    1
    57    21    20    2
    58    27    28    1
    59    27    26    1
    60    20    19    1
    61    20    22   am
    62    40    39    2
    63    19    18    1
    64    23    22    1
    65    23    26    1
    66    23    24    1
    67    28    29    1
    68    39    38    1
    69    25    24    2
    70    49    48   ar
    71    49    51   ar
    72    47    48    1
    73    47    44    1
    74    48    50   ar
    75    11     9   am
    76    51    53   ar
    77    24    31   am
    78    50    52   ar
    79    53    52   ar
    80    53    54    1
    81    10     9    2
    82    41    38    1
    83    41    42    1
    84    38    37    1
    85     9     8    1
    86    29    30    1
    87    43    44    1
    88    44    45    1
    89    37    33   am
    90    31    32    1
    91    34    33    2
    92    33    32    1
    93     4     3    2
    94     1     2    1
    95     8     7    1
    96    45    46    2
    97    45    55   am
    98    32    35    1
    99    88    87   ar
   100    96    94    1
   101     3     7   am
   102     3     2    1
   103    82    83    1
   104    83    86    1
   105    83    84    1
   106     2     5    1
   107    55    56    1
   108    87    86    1
   109    87    89   ar
   110   101   102    1
   111   101    98    1
   112   102   103    1
   113    84    90   am
   114    84    85    2
   115    35    36    1
   116    90    91    1
   117   104   103   ar
   118    58    57    2
   119    94    95    1
   120    94    91    1
   121    57    56    1
   122   103   105   ar
   123    56    59    1
   124     5     6    1
   125    91    92    1
   126   100    99    2
   127    62    63    1
   128    98    99    1
   129    98    97    1
   130    68    67   ar
   131    74    75    1
   132    74    71    1
   133    59    60    1
   134    59    61    1
   135    63    64    1
   136    63    66    1
   137    77    75   ar
   138    77    79   ar
   139    70    71    1
   140    70    64   am
   141    75    76   ar
   142    67    69   ar
   143    67    66    1
   144    92    93    2
   145    79    80   ar
   146    76    78   ar
   147    71    72    1
   148    64    65    2
   149    80    78   ar
   150    80    81    1
   151    73    72    2
