@<TRIPOS>MOLECULE
tmp/1ukvA00.pdb
 154 146 0 0 0
SMALL
GASTEIGER

@<TRIPOS>ATOM
      1  N         -4.3100  -76.5680   20.5510 N.3   123  VAL123     -0.1231
      2  CA        -5.0090  -76.1100   21.7370 C.3   123  VAL123      0.1678
      3  C         -6.3150  -75.4630   21.2900 C.2   123  VAL123      0.2434
      4  O         -6.3030  -74.6650   20.3520 O.2   123  VAL123     -0.2733
      5  CB        -4.1320  -75.0910   22.4940 C.3   123  VAL123      0.0265
      6  CG1       -4.8840  -74.5110   23.7020 C.3   123  VAL123      0.0020
      7  CG2       -2.8410  -75.7750   22.9420 C.3   123  VAL123      0.0020
      8  N         -7.4440  -75.8020   21.9110 N.am  124  PRO124     -0.2718
      9  CA        -8.7240  -75.2160   21.5160 C.3   124  PRO124      0.1535
     10  C         -8.7340  -73.6820   21.4960 C.2   124  PRO124      0.2598
     11  O         -8.0740  -73.0580   22.3400 O.2   124  PRO124     -0.2715
     12  CB        -9.6970  -75.7990   22.5370 C.3   124  PRO124      0.0310
     13  CG        -9.0980  -77.1180   22.8130 C.3   124  PRO124      0.0237
     14  CD        -7.6340  -76.8130   22.9630 C.3   124  PRO124      0.0939
     15  N         -9.4480  -73.1110   20.5320 N.am  125  ALA125     -0.1964
     16  CA        -9.5570  -71.6630   20.4060 C.3   125  ALA125      0.1728
     17  C        -11.0110  -71.2360   20.4090 C.2   125  ALA125      0.2616
     18  O        -11.2810  -70.0360   20.3210 O.2   125  ALA125     -0.2715
     19  CB        -8.8590  -71.1860   19.1280 C.3   125  ALA125      0.0334
     20  N        -11.9170  -72.2080   20.4690 N.am  126  ASN126     -0.1958
     21  CA       -13.3540  -71.9580   20.5260 C.3   126  ASN126      0.1819
     22  C        -14.0450  -73.1560   21.2170 C.2   126  ASN126      0.2621
     23  O        -13.3550  -74.1560   21.4740 O.2   126  ASN126     -0.2715
     24  CB       -13.9200  -71.6910   19.1130 C.3   126  ASN126      0.1195
     25  CG       -13.6940  -72.8430   18.1540 C.2   126  ASN126      0.2630
     26  OD1      -13.9920  -73.9960   18.4570 O.2   126  ASN126     -0.2716
     27  ND2      -13.1680  -72.5300   16.9740 N.am  126  ASN126     -0.0877
     28  N        -15.3390  -73.0740   21.5050 N.am  127  GLU127     -0.1977
     29  CA       -16.0000  -74.1800   22.2090 C.3   127  GLU127      0.1602
     30  C        -16.0860  -75.4730   21.3980 C.2   127  GLU127      0.2287
     31  O        -15.9200  -76.5550   21.9790 O.2   127  GLU127     -0.2864
     32  CB       -17.3810  -73.7250   22.6800 C.3   127  GLU127      0.0415
     33  CG       -18.0080  -74.7060   23.6510 C.3   127  GLU127      0.1163
     34  CD       -19.1800  -74.1170   24.4030 C.2   127  GLU127      0.3649
     35  OE1      -19.4670  -72.9080   24.2160 O.co2 127  GLU127     -0.2457
     36  OE2      -19.8010  -74.8620   25.1890 O.co2 127  GLU127     -0.2457
     37  N        -12.8970  -77.1750   21.8560 N.3   130  ALA130     -0.1231
     38  CA       -12.7230  -77.6470   23.2120 C.3   130  ALA130      0.1694
     39  C        -13.4760  -78.9790   23.4150 C.2   130  ALA130      0.2591
     40  O        -12.9340  -79.8820   24.0740 O.2   130  ALA130     -0.2718
     41  CB       -13.2130  -76.5620   24.1840 C.3   130  ALA130      0.0304
     42  N        -14.6660  -79.0910   22.8290 N.am  131  ILE131     -0.1980
     43  CA       -15.4590  -80.3230   22.9150 C.3   131  ILE131      0.1595
     44  C        -14.7710  -81.4640   22.1500 C.2   131  ILE131      0.2287
     45  O        -14.7710  -82.5990   22.6280 O.2   131  ILE131     -0.2864
     46  CB       -16.8700  -80.1000   22.3200 C.3   131  ILE131      0.0276
     47  CG1      -17.6270  -79.0630   23.1500 C.3   131  ILE131      0.0022
     48  CG2      -17.6410  -81.4080   22.2790 C.3   131  ILE131      0.0022
     49  CD1      -19.0200  -78.7570   22.6330 C.3   131  ILE131      0.0001
     50  N        -11.4400  -81.7060   21.4170 N.3   133  SER133     -0.1217
     51  CA       -10.1070  -82.0400   21.8640 C.3   133  SER133      0.1889
     52  C         -9.9930  -83.2940   22.6970 C.2   133  SER133      0.2288
     53  O        -10.7990  -83.4950   23.5980 O.2   133  SER133     -0.2866
     54  CB        -9.5170  -80.8640   22.6370 C.3   133  SER133      0.2089
     55  OG        -8.1770  -81.1500   22.9870 O.3   133  SER133     -0.2183
     56  N         -7.3950  -83.8430   24.4570 N.3   135  LEU135     -0.1231
     57  CA        -6.4370  -83.5200   25.5150 C.3   135  LEU135      0.1693
     58  C         -6.9860  -83.8010   26.9250 C.2   135  LEU135      0.2591
     59  O         -6.1810  -83.9960   27.8330 O.2   135  LEU135     -0.2718
     60  CB        -6.0090  -82.0610   25.3700 C.3   135  LEU135      0.0284
     61  CG        -4.9930  -81.7690   24.2680 C.3   135  LEU135      0.0019
     62  CD1       -4.8700  -80.2580   24.1120 C.3   135  LEU135      0.0001
     63  CD2       -3.6420  -82.4040   24.6080 C.3   135  LEU135      0.0001
     64  N         -8.3070  -83.8070   27.0880 N.am  136  MET136     -0.1979
     65  CA        -8.9380  -84.0690   28.3800 C.3   136  MET136      0.1605
     66  C        -10.0920  -85.0510   28.2400 C.2   136  MET136      0.2287
     67  O        -10.7360  -85.0510   27.1910 O.2   136  MET136     -0.2864
     68  CB        -9.5100  -82.7700   28.9700 C.3   136  MET136      0.0413
     69  CG        -8.5160  -81.8340   29.5710 C.3   136  MET136      0.0598
     70  SD        -9.3560  -80.4200   30.3280 S.3   136  MET136     -0.1393
     71  CE        -8.0350  -79.2850   30.2440 C.3   136  MET136      0.0692
     72  N        -13.1000  -82.4920   31.6370 N.3   141  LYS141     -0.1245
     73  CA       -13.5420  -81.2710   30.9470 C.3   141  LYS141      0.1561
     74  C        -14.6260  -80.5520   31.7500 C.2   141  LYS141      0.2260
     75  O        -14.6320  -79.3210   31.7600 O.2   141  LYS141     -0.2867
     76  CB       -14.0690  -81.5940   29.5510 C.3   141  LYS141      0.0271
     77  CG       -12.9930  -81.9470   28.5730 C.3   141  LYS141      0.0035
     78  CD       -13.5610  -82.0560   27.1650 C.3   141  LYS141      0.0206
     79  CE       -12.4670  -82.4960   26.2280 C.3   141  LYS141      0.1093
     80  NZ       -13.0050  -82.6570   24.8580 N.3   141  LYS141     -0.1314
     81  N        -12.7840  -78.6330   34.2810 N.3   144  MET144     -0.1230
     82  CA       -12.0750  -77.5470   33.6130 C.3   144  MET144      0.1702
     83  C        -13.0320  -76.4170   33.2970 C.2   144  MET144      0.2592
     84  O        -12.6420  -75.2620   33.4420 O.2   144  MET144     -0.2718
     85  CB       -11.4590  -78.0840   32.3310 C.3   144  MET144      0.0401
     86  CG       -10.7290  -77.0390   31.5180 C.3   144  MET144      0.0596
     87  SD        -9.3230  -76.3970   32.3680 S.3   144  MET144     -0.1393
     88  CE        -8.7350  -75.2740   31.0570 C.3   144  MET144      0.0692
     89  N        -14.2440  -76.7430   32.8560 N.am  145  LYS145     -0.1980
     90  CA       -15.2310  -75.7270   32.5340 C.3   145  LYS145      0.1596
     91  C        -15.5940  -74.8750   33.7580 C.2   145  LYS145      0.2287
     92  O        -15.7210  -73.6580   33.6120 O.2   145  LYS145     -0.2864
     93  CB       -16.4640  -76.4000   31.9340 C.3   145  LYS145      0.0298
     94  CG       -17.5010  -75.4200   31.4520 C.3   145  LYS145      0.0038
     95  CD       -18.4830  -76.0750   30.4830 C.3   145  LYS145      0.0206
     96  CE       -19.5800  -75.0980   30.0790 C.3   145  LYS145      0.1093
     97  NZ       -18.9910  -73.8210   29.5460 N.3   145  LYS145     -0.1314
     98  N        -12.7730  -72.4270   34.2930 N.3   148  LEU148     -0.1245
     99  CA       -12.7710  -71.3010   33.3600 C.3   148  LEU148      0.1561
    100  C        -13.9110  -70.3430   33.6640 C.2   148  LEU148      0.2260
    101  O        -13.7240  -69.1340   33.4720 O.2   148  LEU148     -0.2867
    102  CB       -12.8500  -71.8290   31.9240 C.3   148  LEU148      0.0270
    103  CG       -11.5880  -72.5620   31.4720 C.3   148  LEU148      0.0019
    104  CD1      -11.8670  -73.1650   30.0990 C.3   148  LEU148      0.0001
    105  CD2      -10.3890  -71.6200   31.4180 C.3   148  LEU148      0.0001
    106  N         -1.5190  -78.6890   31.3790 N.3   188  PHE188     -0.1241
    107  CA        -2.1240  -77.9720   30.2700 C.3   188  PHE188      0.1605
    108  C         -2.3620  -76.5020   30.6420 C.2   188  PHE188      0.2264
    109  O         -1.9680  -75.6080   29.8860 O.2   188  PHE188     -0.2867
    110  CB        -3.4390  -78.6470   29.8800 C.3   188  PHE188      0.0534
    111  CG        -4.1950  -77.9060   28.8230 C.ar  188  PHE188     -0.0203
    112  CD1       -3.8610  -78.0490   27.4780 C.ar  188  PHE188     -0.0042
    113  CD2       -5.2010  -77.0160   29.1760 C.ar  188  PHE188     -0.0042
    114  CE1       -4.5310  -77.3040   26.4950 C.ar  188  PHE188     -0.0003
    115  CE2       -5.8720  -76.2760   28.2250 C.ar  188  PHE188     -0.0003
    116  CZ        -5.5320  -76.4210   26.8620 C.ar  188  PHE188     -0.0000
    117  N         -1.7060  -72.3740   28.7720 N.3   193  MET193     -0.1245
    118  CA        -2.4840  -71.1430   28.9390 C.3   193  MET193      0.1570
    119  C         -1.7040  -70.0620   29.7250 C.2   193  MET193      0.2261
    120  O         -1.6040  -68.9290   29.2470 O.2   193  MET193     -0.2867
    121  CB        -3.8180  -71.4490   29.6290 C.3   193  MET193      0.0387
    122  CG        -4.6900  -72.3840   28.8080 C.3   193  MET193      0.0595
    123  SD        -6.2800  -72.7460   29.5900 S.3   193  MET193     -0.1393
    124  CE        -7.2460  -71.3340   29.0760 C.3   193  MET193      0.0692
    125  N         -4.7140  -64.9490   28.4970 N.3   216  TYR216     -0.1227
    126  CA        -4.8070  -65.9040   27.4030 C.3   216  TYR216      0.1736
    127  C         -6.2450  -65.9890   26.8980 C.2   216  TYR216      0.2595
    128  O         -6.4730  -65.9060   25.6890 O.2   216  TYR216     -0.2718
    129  CB        -4.3210  -67.2860   27.8910 C.3   216  TYR216      0.0548
    130  CG        -4.2400  -68.3400   26.7930 C.ar  216  TYR216     -0.0200
    131  CD1       -5.3940  -68.9580   26.3070 C.ar  216  TYR216     -0.0009
    132  CD2       -3.0140  -68.6870   26.2410 C.ar  216  TYR216     -0.0009
    133  CE1       -5.3200  -69.9030   25.2830 C.ar  216  TYR216      0.0417
    134  CE2       -2.9290  -69.6380   25.2140 C.ar  216  TYR216      0.0417
    135  CZ        -4.0790  -70.2300   24.7470 C.ar  216  TYR216      0.1957
    136  OH        -3.9740  -71.1550   23.7140 O.3   216  TYR216     -0.2866
    137  N         -7.2010  -66.1680   27.8000 N.am  217  CYS217     -0.1970
    138  CA        -8.6030  -66.2620   27.4040 C.3   217  CYS217      0.1712
    139  C         -9.0830  -64.9890   26.6920 C.2   217  CYS217      0.2296
    140  O         -9.7610  -65.0930   25.6750 O.2   217  CYS217     -0.2864
    141  CB        -9.4540  -66.5390   28.6540 C.3   217  CYS217      0.0983
    142  SG        -9.1680  -68.1960   29.3500 S.3   217  CYS217     -0.0798
    143  N         -7.5250  -64.9040   23.1150 N.3   220  VAL220     -0.1231
    144  CA        -8.1790  -65.7640   22.1330 C.3   220  VAL220      0.1692
    145  C         -9.5320  -65.1650   21.7110 C.2   220  VAL220      0.2591
    146  O         -9.8950  -65.2680   20.5400 O.2   220  VAL220     -0.2718
    147  CB        -8.4330  -67.1720   22.7210 C.3   220  VAL220      0.0266
    148  CG1       -9.3530  -67.9900   21.7940 C.3   220  VAL220      0.0020
    149  CG2       -7.1310  -67.8630   22.9280 C.3   220  VAL220      0.0020
    150  N        -10.2430  -64.5590   22.6520 N.am  221  ALA221     -0.1980
    151  CA       -11.5450  -63.9620   22.3980 C.3   221  ALA221      0.1597
    152  C        -11.4830  -62.7370   21.4780 C.2   221  ALA221      0.2287
    153  O        -12.5160  -62.3990   20.8860 O.2   221  ALA221     -0.2864
    154  CB       -12.2070  -63.5750   23.7240 C.3   221  ALA221      0.0319
@<TRIPOS>BOND
     1    27    25   am
     2    25    26    2
     3    25    24    1
     4    24    21    1
     5    19    16    1
     6    18    17    2
     7     4     3    2
     8    16    17    1
     9    16    15    1
    10    17    20   am
    11    20    21    1
    12    21    22    1
    13    15    10   am
    14   146   145    2
    15     1     2    1
    16   153   152    2
    17    22    23    2
    18    22    28   am
    19     3     2    1
    20     3     8   am
    21    30    31    2
    22    30    29    1
    23    50    51    1
    24   152   151    1
    25    10     9    1
    26    10    11    2
    27    28    29    1
    28     9     8    1
    29     9    12    1
    30   145   144    1
    31   145   150   am
    32     2     5    1
    33   148   147    1
    34    37    38    1
    35    51    54    1
    36    51    52    1
    37     8    14    1
    38   144   147    1
    39   144   143    1
    40    44    45    2
    41    44    43    1
    42    29    32    1
    43    48    46    1
    44    46    43    1
    45    46    47    1
    46   151   150    1
    47   151   154    1
    48     5     7    1
    49     5     6    1
    50    12    13    1
    51    49    47    1
    52    54    55    1
    53    32    33    1
    54    52    53    2
    55   147   149    1
    56    13    14    1
    57    42    43    1
    58    42    39   am
    59    38    39    1
    60    38    41    1
    61    39    40    2
    62    33    34    1
    63   136   135    1
    64    62    61    1
    65    35    34   ar
    66    61    63    1
    67    61    60    1
    68    34    36   ar
    69    56    57    1
    70   135   134   ar
    71   135   133   ar
    72    80    79    1
    73   134   132   ar
    74   133   131   ar
    75    60    57    1
    76    57    58    1
    77   140   139    2
    78   128   127    2
    79    79    78    1
    80   132   130   ar
    81   131   130   ar
    82   114   116   ar
    83   114   112   ar
    84   139   138    1
    85   130   129    1
    86   116   115   ar
    87   127   126    1
    88   127   137   am
    89    58    64   am
    90    58    59    2
    91    64    65    1
    92    78    77    1
    93    67    66    2
    94   126   129    1
    95   126   125    1
    96   138   137    1
    97   138   141    1
    98   112   111   ar
    99   115   113   ar
   100    66    65    1
   101    65    68    1
   102    77    76    1
   103   141   142    1
   104   117   118    1
   105   122   123    1
   106   122   121    1
   107   111   113   ar
   108   111   110    1
   109   118   121    1
   110   118   119    1
   111    68    69    1
   112   124   123    1
   113   120   119    2
   114    97    96    1
   115    76    73    1
   116    69    70    1
   117   110   107    1
   118   109   108    2
   119    96    95    1
   120   104   103    1
   121    71    70    1
   122   107   108    1
   123   107   106    1
   124    95    94    1
   125    73    72    1
   126    73    74    1
   127    88    87    1
   128   105   103    1
   129    94    93    1
   130   103   102    1
   131    86    85    1
   132    86    87    1
   133    74    75    2
   134   102    99    1
   135    93    90    1
   136    85    82    1
   137    90    89    1
   138    90    91    1
   139    89    83   am
   140    83    84    2
   141    83    82    1
   142    99   100    1
   143    99    98    1
   144   101   100    2
   145    92    91    2
   146    82    81    1
