@<TRIPOS>MOLECULE
tmp/1ukwA00.pdb
 184 178 0 0 0
SMALL
GASTEIGER

@<TRIPOS>ATOM
      1  N         -4.9500  124.4580 -244.9760 N.3    92  LEU92      -0.1245
      2  CA        -4.0490  124.4990 -246.1220 C.3    92  LEU92       0.1561
      3  C         -3.6690  125.9450 -246.4400 C.2    92  LEU92       0.2260
      4  O         -2.5080  126.2340 -246.7580 O.2    92  LEU92      -0.2867
      5  CB        -4.7110  123.8550 -247.3480 C.3    92  LEU92       0.0270
      6  CG        -3.9680  123.9560 -248.6860 C.3    92  LEU92       0.0019
      7  CD1       -2.6630  123.1930 -248.6420 C.3    92  LEU92       0.0001
      8  CD2       -4.8530  123.4170 -249.7870 C.3    92  LEU92       0.0001
      9  N         -5.9430  128.4370 -250.4090 N.3   122  PHE122     -0.1241
     10  CA        -4.6710  128.1320 -251.0540 C.3   122  PHE122      0.1605
     11  C         -4.8970  128.0400 -252.5640 C.2   122  PHE122      0.2264
     12  O         -5.6090  127.1500 -253.0370 O.2   122  PHE122     -0.2867
     13  CB        -4.1800  126.7910 -250.5030 C.3   122  PHE122      0.0534
     14  CG        -2.8320  126.3600 -251.0080 C.ar  122  PHE122     -0.0203
     15  CD1       -1.6830  126.6270 -250.2700 C.ar  122  PHE122     -0.0042
     16  CD2       -2.7180  125.6330 -252.1940 C.ar  122  PHE122     -0.0042
     17  CE1       -0.4420  126.1700 -250.7010 C.ar  122  PHE122     -0.0003
     18  CE2       -1.4790  125.1750 -252.6310 C.ar  122  PHE122     -0.0003
     19  CZ        -0.3390  125.4420 -251.8810 C.ar  122  PHE122     -0.0000
     20  N         -2.9910  127.5400 -256.0560 N.3   124  LEU124     -0.1231
     21  CA        -1.8020  127.1810 -256.8210 C.3   124  LEU124      0.1693
     22  C         -2.1820  126.7360 -258.2310 C.2   124  LEU124      0.2593
     23  O         -1.5790  127.1720 -259.2090 O.2   124  LEU124     -0.2718
     24  CB        -1.0500  126.0530 -256.1110 C.3   124  LEU124      0.0284
     25  CG         0.1640  125.4890 -256.8320 C.3   124  LEU124      0.0019
     26  CD1        1.1910  126.5780 -257.0000 C.3   124  LEU124      0.0001
     27  CD2        0.7470  124.3320 -256.0410 C.3   124  LEU124      0.0001
     28  N         -3.1920  125.8760 -258.3280 N.am  125  SER125     -0.1938
     29  CA        -3.6510  125.3540 -259.6160 C.3   125  SER125      0.2055
     30  C         -4.2340  126.4280 -260.5330 C.2   125  SER125      0.2643
     31  O         -4.7360  127.4500 -260.0800 O.2   125  SER125     -0.2714
     32  CB        -4.7020  124.2550 -259.4000 C.3   125  SER125      0.2130
     33  OG        -4.1660  123.1530 -258.6850 O.3   125  SER125     -0.2179
     34  N         -4.1640  126.1860 -261.8310 N.am  126  GLU126     -0.1963
     35  CA        -4.7010  127.1260 -262.7930 C.3   126  GLU126      0.1718
     36  C         -5.4430  126.3180 -263.8500 C.2   126  GLU126      0.2458
     37  O         -5.2630  125.1080 -263.9510 O.2   126  GLU126     -0.2730
     38  CB        -3.5710  127.9520 -263.4250 C.3   126  GLU126      0.0428
     39  CG        -2.6570  128.6390 -262.4000 C.3   126  GLU126      0.1163
     40  CD        -1.6940  129.6410 -263.0330 C.2   126  GLU126      0.3649
     41  OE1       -1.1090  129.3300 -264.0950 O.co2 126  GLU126     -0.2457
     42  OE2       -1.5130  130.7380 -262.4610 O.co2 126  GLU126     -0.2457
     43  N         -6.2940  126.9760 -264.6450 N.am  127  PRO127     -0.2727
     44  CA        -7.0460  126.2730 -265.6820 C.3   127  PRO127      0.1402
     45  C         -6.1990  125.3430 -266.5600 C.2   127  PRO127      0.2269
     46  O         -6.5660  124.1860 -266.7840 O.2   127  PRO127     -0.2865
     47  CB        -7.6710  127.4140 -266.4800 C.3   127  PRO127      0.0296
     48  CG        -7.9150  128.4480 -265.4370 C.3   127  PRO127      0.0237
     49  CD        -6.6300  128.4120 -264.6340 C.3   127  PRO127      0.0939
     50  N         -3.1380  124.2030 -265.9250 N.3   129  ASN129     -0.1225
     51  CA        -2.0390  123.5780 -265.2050 C.3   129  ASN129      0.1785
     52  C         -2.3690  123.3060 -263.7390 C.2   129  ASN129      0.2598
     53  O         -2.8470  124.1870 -263.0210 O.2   129  ASN129     -0.2718
     54  CB        -0.8060  124.4810 -265.3100 C.3   129  ASN129      0.1169
     55  CG         0.2780  124.0970 -264.3380 C.2   129  ASN129      0.2627
     56  OD1        0.8740  123.0230 -264.4490 O.2   129  ASN129     -0.2716
     57  ND2        0.5330  124.9670 -263.3640 N.am  129  ASN129     -0.0877
     58  N         -2.1080  122.0800 -263.3000 N.am  130  GLY130     -0.1942
     59  CA        -2.3770  121.7150 -261.9200 C.3   130  GLY130      0.2014
     60  C         -1.2770  120.8320 -261.3640 C.2   130  GLY130      0.2639
     61  O         -0.8560  120.9910 -260.2230 O.2   130  GLY130     -0.2714
     62  N         -0.8030  119.8960 -262.1770 N.am  131  SER131     -0.1949
     63  CA         0.2620  118.9950 -261.7520 C.3   131  SER131      0.1924
     64  C          1.6020  119.6630 -261.9560 C.2   131  SER131      0.2314
     65  O          2.5010  119.5520 -261.1170 O.2   131  SER131     -0.2863
     66  CB         0.2160  117.6920 -262.5500 C.3   131  SER131      0.2116
     67  OG        -0.9650  116.9680 -262.2550 O.3   131  SER131     -0.2180
     68  N        -10.0680  125.7010 -259.3670 N.3   155  TRP155     -0.1227
     69  CA       -10.4060  124.7120 -258.3580 C.3   155  TRP155      0.1737
     70  C        -10.0630  125.1780 -256.9520 C.2   155  TRP155      0.2595
     71  O         -9.7870  124.3540 -256.1100 O.2   155  TRP155     -0.2718
     72  CB        -9.6450  123.4060 -258.5940 C.3   155  TRP155      0.0564
     73  CG        -9.6750  122.8640 -259.9760 C.ar  155  TRP155      0.0003
     74  CD1       -8.6010  122.6670 -260.7950 C.ar  155  TRP155      0.0946
     75  CD2      -10.8300  122.4500 -260.7170 C.ar  155  TRP155      0.0152
     76  NE1       -9.0140  122.1600 -262.0040 N.ar  155  TRP155     -0.2442
     77  CE2      -10.3770  122.0170 -261.9860 C.ar  155  TRP155      0.0810
     78  CE3      -12.2020  122.4050 -260.4370 C.ar  155  TRP155      0.0012
     79  CZ2      -11.2530  121.5450 -262.9760 C.ar  155  TRP155      0.0191
     80  CZ3      -13.0750  121.9320 -261.4280 C.ar  155  TRP155      0.0001
     81  CH2      -12.5920  121.5120 -262.6760 C.ar  155  TRP155      0.0015
     82  N        -10.0820  126.4750 -256.6720 N.am  156  ILE156     -0.1966
     83  CA        -9.7110  126.9250 -255.3290 C.3   156  ILE156      0.1727
     84  C        -10.7520  126.6400 -254.2450 C.2   156  ILE156      0.2616
     85  O        -11.8730  127.1420 -254.3040 O.2   156  ILE156     -0.2715
     86  CB        -9.3750  128.4440 -255.3240 C.3   156  ILE156      0.0290
     87  CG1       -8.4360  128.7750 -256.4950 C.3   156  ILE156      0.0022
     88  CG2       -8.7340  128.8360 -253.9980 C.3   156  ILE156      0.0023
     89  CD1       -7.2360  127.8610 -256.6190 C.3   156  ILE156      0.0001
     90  N        -10.3760  125.8270 -253.2590 N.am  157  SER157     -0.1950
     91  CA       -11.2720  125.4910 -252.1480 C.3   157  SER157      0.1924
     92  C        -11.3960  126.7030 -251.2220 C.2   157  SER157      0.2314
     93  O        -10.3830  127.3090 -250.8660 O.2   157  SER157     -0.2863
     94  CB       -10.7200  124.3080 -251.3460 C.3   157  SER157      0.2116
     95  OG       -10.6090  123.1450 -252.1400 O.3   157  SER157     -0.2180
     96  N        -20.2050  119.4360 -259.0650 N.3   200  LYS200     -0.1245
     97  CA       -19.1600  118.5010 -258.6720 C.3   200  LYS200      0.1561
     98  C        -19.7800  117.1430 -258.3790 C.2   200  LYS200      0.2260
     99  O        -20.9300  117.0630 -257.9700 O.2   200  LYS200     -0.2867
    100  CB       -18.4110  118.9980 -257.4340 C.3   200  LYS200      0.0271
    101  CG       -17.5770  120.2310 -257.6690 C.3   200  LYS200      0.0035
    102  CD       -16.5380  120.4280 -256.5800 C.3   200  LYS200      0.0206
    103  CE       -17.1710  120.4870 -255.2000 C.3   200  LYS200      0.1093
    104  NZ       -16.1620  120.6720 -254.1400 N.3   200  LYS200     -0.1314
    105  N        -15.8610  125.4190 -254.2750 N.3   208  THR208     -0.1218
    106  CA       -14.6760  125.3980 -255.1160 C.3   208  THR208      0.1862
    107  C        -14.8390  126.5470 -256.0980 C.2   208  THR208      0.2287
    108  O        -15.9110  126.7420 -256.6830 O.2   208  THR208     -0.2866
    109  CB       -14.5470  124.0700 -255.8450 C.3   208  THR208      0.1770
    110  OG1      -14.6950  123.0080 -254.8940 O.3   208  THR208     -0.2211
    111  CG2      -13.1810  123.9640 -256.5110 C.3   208  THR208      0.0375
    112  N        -12.3310  112.3390 -255.0640 N.3   357  LEU357     -0.1245
    113  CA       -11.6070  113.6060 -255.1330 C.3   357  LEU357      0.1561
    114  C        -10.2860  113.5180 -254.3730 C.2   357  LEU357      0.2260
    115  O         -9.3100  114.1580 -254.7530 O.2   357  LEU357     -0.2867
    116  CB       -12.4440  114.7280 -254.5240 C.3   357  LEU357      0.0270
    117  CG       -12.3260  116.1610 -255.0690 C.3   357  LEU357      0.0019
    118  CD1      -12.6080  117.1210 -253.9220 C.3   357  LEU357      0.0001
    119  CD2      -10.9450  116.4360 -255.6600 C.3   357  LEU357      0.0001
    120  N         -7.3130  113.0170 -256.3720 N.3   360  ILE360     -0.1231
    121  CA        -6.9840  114.0240 -257.3660 C.3   360  ILE360      0.1692
    122  C         -6.4300  115.3420 -256.8410 C.2   360  ILE360      0.2592
    123  O         -5.3990  115.7980 -257.3330 O.2   360  ILE360     -0.2718
    124  CB        -8.2060  114.3170 -258.2470 C.3   360  ILE360      0.0266
    125  CG1       -8.5810  113.0540 -259.0120 C.3   360  ILE360      0.0019
    126  CG2       -7.9140  115.4700 -259.2030 C.3   360  ILE360      0.0020
    127  CD1       -9.9340  113.1290 -259.6830 C.3   360  ILE360      0.0001
    128  N         -7.0900  115.9620 -255.8620 N.am  361  TYR361     -0.1962
    129  CA        -6.5840  117.2360 -255.3650 C.3   361  TYR361      0.1771
    130  C         -5.4050  117.1270 -254.4130 C.2   361  TYR361      0.2619
    131  O         -5.1530  116.0780 -253.8310 O.2   361  TYR361     -0.2715
    132  CB        -7.7100  118.1060 -254.7690 C.3   361  TYR361      0.0574
    133  CG        -8.3690  117.6720 -253.4730 C.ar  361  TYR361     -0.0198
    134  CD1       -8.1180  116.4260 -252.8930 C.ar  361  TYR361     -0.0009
    135  CD2       -9.2820  118.5190 -252.8410 C.ar  361  TYR361     -0.0009
    136  CE1       -8.7680  116.0380 -251.7160 C.ar  361  TYR361      0.0417
    137  CE2       -9.9330  118.1480 -251.6760 C.ar  361  TYR361      0.0417
    138  CZ        -9.6760  116.9070 -251.1160 C.ar  361  TYR361      0.1957
    139  OH       -10.3440  116.5440 -249.9690 O.3   361  TYR361     -0.2866
    140  N         -4.6860  118.2350 -254.2770 N.am  362  GLU362     -0.1963
    141  CA        -3.4790  118.3150 -253.4620 C.3   362  GLU362      0.1733
    142  C         -2.4500  117.3580 -254.0550 C.2   362  GLU362      0.2617
    143  O         -1.6150  116.7900 -253.3460 O.2   362  GLU362     -0.2715
    144  CB        -3.7640  117.9920 -251.9840 C.3   362  GLU362      0.0429
    145  CG        -4.0290  119.2470 -251.1450 C.3   362  GLU362      0.1163
    146  CD        -4.0170  119.0050 -249.6390 C.2   362  GLU362      0.3649
    147  OE1       -2.9800  118.5600 -249.1030 O.co2 362  GLU362     -0.2457
    148  OE2       -5.0490  119.2710 -248.9890 O.co2 362  GLU362     -0.2457
    149  N         -2.5240  117.2020 -255.3790 N.am  363  GLY363     -0.1940
    150  CA        -1.6140  116.3280 -256.0950 C.3   363  GLY363      0.2014
    151  C         -2.2890  115.0210 -256.4380 C.2   363  GLY363      0.2639
    152  O         -2.8000  114.3410 -255.5490 O.2   363  GLY363     -0.2714
    153  N         -2.3160  114.6650 -257.7200 N.am  364  THR364     -0.1950
    154  CA        -2.9550  113.4140 -258.1100 C.3   364  THR364      0.1897
    155  C         -2.1060  112.2690 -257.6080 C.2   364  THR364      0.2313
    156  O         -0.9090  112.4270 -257.3520 O.2   364  THR364     -0.2863
    157  CB        -3.0940  113.2510 -259.6430 C.3   364  THR364      0.1794
    158  OG1       -1.8040  113.3520 -260.2500 O.3   364  THR364     -0.2208
    159  CG2       -4.0170  114.3010 -260.2190 C.3   364  THR364      0.0378
    160  N         -0.9400  109.9950 -259.2190 N.3   366  GLU366     -0.1231
    161  CA         0.1200  109.6990 -260.1860 C.3   366  GLU366      0.1699
    162  C          1.3540  110.5250 -259.8740 C.2   366  GLU366      0.2592
    163  O          2.4720  110.0150 -259.9290 O.2   366  GLU366     -0.2718
    164  CB        -0.2980  109.9990 -261.6320 C.3   366  GLU366      0.0402
    165  CG        -1.1720  108.9450 -262.2590 C.3   366  GLU366      0.1161
    166  CD        -2.5510  108.9290 -261.6540 C.2   366  GLU366      0.3649
    167  OE1       -3.1380  107.8300 -261.5460 O.co2 366  GLU366     -0.2457
    168  OE2       -3.0500  110.0140 -261.2930 O.co2 366  GLU366     -0.2457
    169  N          1.1630  111.8030 -259.5570 N.am  367  ILE367     -0.1980
    170  CA         2.3150  112.6160 -259.2420 C.3   367  ILE367      0.1595
    171  C          2.7940  112.2850 -257.8300 C.2   367  ILE367      0.2287
    172  O          3.9690  112.4840 -257.5140 O.2   367  ILE367     -0.2864
    173  CB         2.0380  114.1400 -259.4340 C.3   367  ILE367      0.0276
    174  CG1        1.2160  114.6960 -258.2880 C.3   367  ILE367      0.0022
    175  CG2        1.3770  114.3820 -260.7970 C.3   367  ILE367      0.0022
    176  CD1        2.0750  115.1920 -257.1500 C.3   367  ILE367      0.0001
    177  N          5.0980  109.9000 -258.6250 N.3   370  LEU370     -0.1245
    178  CA         6.2660  110.5110 -259.2400 C.3   370  LEU370      0.1561
    179  C          7.1750  111.0300 -258.1240 C.2   370  LEU370      0.2260
    180  O          8.3990  110.9460 -258.2140 O.2   370  LEU370     -0.2867
    181  CB         5.8370  111.6580 -260.1560 C.3   370  LEU370      0.0270
    182  CG         5.8000  111.3490 -261.6580 C.3   370  LEU370      0.0019
    183  CD1        5.3470  109.9280 -261.9040 C.3   370  LEU370      0.0001
    184  CD2        4.8710  112.3380 -262.3480 C.3   370  LEU370      0.0001
@<TRIPOS>BOND
     1    46    45    2
     2    45    44    1
     3    47    44    1
     4    47    48    1
     5    50    51    1
     6    44    43    1
     7    48    49    1
     8    54    51    1
     9    54    55    1
    10    51    52    1
    11    43    49    1
    12    43    36   am
    13    56    55    2
    14    55    57   am
    15    41    40   ar
    16    37    36    2
    17    36    35    1
    18    52    58   am
    19    52    53    2
    20    38    35    1
    21    38    39    1
    22    58    59    1
    23    40    42   ar
    24    40    39    1
    25    79    81   ar
    26    79    77   ar
    27    35    34    1
    28    81    80   ar
    29    66    67    1
    30    66    63    1
    31   184   182    1
    32   165   166    1
    33   165   164    1
    34    62    63    1
    35    62    60   am
    36    76    77   ar
    37    76    74   ar
    38    77    75   ar
    39    64    63    1
    40    64    65    2
    41    59    60    1
    42   183   182    1
    43    34    30   am
    44   182   181    1
    45   166   167   ar
    46   166   168   ar
    47   164   161    1
    48    80    78   ar
    49    60    61    2
    50   175   173    1
    51    74    73   ar
    52    75    78   ar
    53    75    73   ar
    54    30    31    2
    55    30    29    1
    56   158   157    1
    57   159   157    1
    58   161   162    1
    59   161   160    1
    60   181   178    1
    61    73    72    1
    62   163   162    2
    63   162   169   am
    64   127   125    1
    65   157   154    1
    66    29    32    1
    67    29    28    1
    68   169   170    1
    69   173   170    1
    70   173   174    1
    71    32    33    1
    72    68    69    1
    73   170   171    1
    74   178   177    1
    75   178   179    1
    76    23    22    2
    77   126   124    1
    78    96    97    1
    79   125   124    1
    80    97    98    1
    81    97   100    1
    82    72    69    1
    83    98    99    2
    84    69    70    1
    85    28    22   am
    86   174   176    1
    87   124   121    1
    88    22    21    1
    89   180   179    2
    90   154   153    1
    91   154   155    1
    92   171   172    2
    93   153   151   am
    94   101   100    1
    95   101   102    1
    96   155   156    2
    97   121   122    1
    98   121   120    1
    99   123   122    2
   100    26    25    1
   101    70    82   am
   102    70    71    2
   103   122   128   am
   104    25    24    1
   105    25    27    1
   106    21    24    1
   107    21    20    1
   108   108   107    2
   109    82    83    1
   110    89    87    1
   111   102   103    1
   112   111   109    1
   113    87    86    1
   114   151   150    1
   115   151   152    2
   116   107   106    1
   117   150   149    1
   118   128   129    1
   119   109   106    1
   120   109   110    1
   121   119   117    1
   122   149   142   am
   123   129   132    1
   124   129   130    1
   125    83    86    1
   126    83    84    1
   127    86    88    1
   128   103   104    1
   129   113   112    1
   130   113   116    1
   131   113   114    1
   132   106   105    1
   133   117   116    1
   134   117   118    1
   135   132   133    1
   136   115   114    2
   137   130   140   am
   138   130   131    2
   139    85    84    2
   140   140   141    1
   141    84    90   am
   142   142   141    1
   143   142   143    2
   144   133   134   ar
   145   133   135   ar
   146   141   144    1
   147    90    91    1
   148    12    11    2
   149   134   136   ar
   150   135   137   ar
   151    18    16   ar
   152    18    19   ar
   153    11    10    1
   154    16    14   ar
   155    91    94    1
   156    91    92    1
   157    95    94    1
   158   144   145    1
   159    19    17   ar
   160   136   138   ar
   161   137   138   ar
   162    92    93    2
   163   145   146    1
   164   138   139    1
   165    10    13    1
   166    10     9    1
   167    14    13    1
   168    14    15   ar
   169    17    15   ar
   170     8     6    1
   171   146   147   ar
   172   146   148   ar
   173     6     7    1
   174     6     5    1
   175     5     2    1
   176     4     3    2
   177     3     2    1
   178     2     1    1
