@<TRIPOS>MOLECULE
tmp/1ukyA01.pdb
 187 175 0 0 0
SMALL
GASTEIGER

@<TRIPOS>ATOM
      1  N         19.3510   30.8380    7.3270 N.3    17  PRO17      -0.2102
      2  CA        18.8390   32.1780    7.5730 C.3    17  PRO17       0.1504
      3  C         18.6370   32.9430    6.2590 C.2    17  PRO17       0.2576
      4  O         19.5950   32.9290    5.4740 O.2    17  PRO17      -0.2718
      5  CB        19.8910   32.7470    8.5330 C.3    17  PRO17       0.0282
      6  CG        21.1590   31.9680    8.3150 C.3    17  PRO17       0.0208
      7  CD        20.5990   30.5710    8.0290 C.3    17  PRO17       0.0893
      8  N         17.5050   33.5870    5.9450 N.am   18  GLY18      -0.1957
      9  CA        17.3580   34.3560    4.7110 C.3    18  GLY18       0.1869
     10  C         17.0140   33.5030    3.4970 C.2    18  GLY18       0.2309
     11  O         17.0940   33.9790    2.3770 O.2    18  GLY18      -0.2863
     12  N         11.9020   31.3680    4.3510 N.3    21  LYS21      -0.1245
     13  CA        10.9120   30.6040    5.1250 C.3    21  LYS21       0.1561
     14  C          9.7710   31.4910    5.5320 C.2    21  LYS21       0.2260
     15  O          8.6110   31.2190    5.1990 O.2    21  LYS21      -0.2867
     16  CB        11.5450   30.0470    6.3540 C.3    21  LYS21       0.0271
     17  CG        12.7310   29.1400    5.9870 C.3    21  LYS21       0.0035
     18  CD        13.3460   28.5100    7.2010 C.3    21  LYS21       0.0206
     19  CE        13.7850   29.5600    8.2020 C.3    21  LYS21       0.1093
     20  NZ        14.9360   30.2880    7.6950 N.3    21  LYS21      -0.1314
     21  N          6.3000   30.9440   13.8410 N.3    38  SER38      -0.1202
     22  CA         7.7040   31.1030   13.6210 C.3    38  SER38       0.2020
     23  C          8.3370   30.9750   15.0000 C.2    38  SER38       0.2619
     24  O          7.9730   31.7500   15.9050 O.2    38  SER38      -0.2717
     25  CB         8.0160   32.4970   13.0270 C.3    38  SER38       0.2103
     26  OG         9.3830   32.9230   13.2270 O.3    38  SER38      -0.2182
     27  N          9.3260   30.0840   15.1060 N.am   39  ALA39      -0.1965
     28  CA        10.0140   29.8590   16.3370 C.3    39  ALA39       0.1728
     29  C         10.8080   31.1120   16.6610 C.2    39  ALA39       0.2616
     30  O         10.7380   31.5700   17.8110 O.2    39  ALA39      -0.2715
     31  CB        10.9300   28.6780   16.1930 C.3    39  ALA39       0.0334
     32  N         11.4710   31.8270   15.7750 N.am   40  GLY40      -0.1955
     33  CA        12.1900   33.0310   16.1410 C.3    40  GLY40       0.1869
     34  C         11.2670   34.1730   16.5860 C.2    40  GLY40       0.2309
     35  O         11.6340   35.0550   17.3940 O.2    40  GLY40      -0.2863
     36  N         10.2490   33.5250   20.1500 N.3    43  LEU43      -0.1231
     37  CA        11.3810   33.8340   20.9990 C.3    43  LEU43       0.1693
     38  C         11.5760   35.3000   21.1750 C.2    43  LEU43       0.2591
     39  O         11.8290   35.7500   22.2760 O.2    43  LEU43      -0.2718
     40  CB        12.6560   33.2920   20.4430 C.3    43  LEU43       0.0284
     41  CG        12.7700   31.8070   20.5770 C.3    43  LEU43       0.0019
     42  CD1       13.8760   31.3830   19.6400 C.3    43  LEU43       0.0001
     43  CD2       12.9540   31.3950   22.0330 C.3    43  LEU43       0.0001
     44  N         11.5020   36.1140   20.1260 N.am   44  ARG44      -0.1980
     45  CA        11.6450   37.5590   20.2580 C.3    44  ARG44       0.1597
     46  C         10.5140   38.1830   21.0540 C.2    44  ARG44       0.2287
     47  O         10.7070   39.2130   21.6960 O.2    44  ARG44      -0.2864
     48  CB        11.6890   38.1650   18.9120 C.3    44  ARG44       0.0334
     49  CG        13.0220   37.9430   18.1840 C.3    44  ARG44       0.0492
     50  CD        12.8880   38.6750   16.8170 C.3    44  ARG44       0.2205
     51  NE        12.1040   37.9620   15.7770 N.pl3  44  ARG44      -0.0865
     52  CZ        12.6480   37.0140   15.0160 C.cat  44  ARG44       0.5346
     53  NH1       13.9280   36.6700   15.1770 N.pl3  44  ARG44       0.1354
     54  NH2       11.8700   36.4270   14.1140 N.pl3  44  ARG44       0.1354
     55  N         21.4900   34.6670   22.9480 N.3    61  CYS61      -0.1221
     56  CA        21.5530   33.6010   21.9670 C.3    61  CYS61       0.1808
     57  C         21.3560   34.1530   20.5690 C.2    61  CYS61       0.2601
     58  O         22.2190   33.8810   19.7460 O.2    61  CYS61      -0.2717
     59  CB        20.5090   32.5870   22.2740 C.3    61  CYS61       0.0970
     60  SG        20.9500   31.7270   23.8000 S.3    61  CYS61      -0.0800
     61  N         20.3510   34.9860   20.2810 N.am   62  ILE62      -0.1979
     62  CA        20.0720   35.6050   18.9650 C.3    62  ILE62       0.1595
     63  C         21.2450   36.4250   18.4400 C.2    62  ILE62       0.2287
     64  O         21.6640   36.2510   17.3010 O.2    62  ILE62      -0.2864
     65  CB        18.7830   36.5040   19.0480 C.3    62  ILE62       0.0276
     66  CG1       17.5670   35.6140   19.2100 C.3    62  ILE62       0.0022
     67  CG2       18.6010   37.3460   17.7980 C.3    62  ILE62       0.0022
     68  CD1       16.2260   36.4130   19.3800 C.3    62  ILE62       0.0001
     69  N         23.8700   34.1180   17.4200 N.3    65  GLY65      -0.1210
     70  CA        23.3740   33.1090   16.5080 C.3    65  GLY65       0.1956
     71  C         23.3460   31.7320   17.1280 C.2    65  GLY65       0.2612
     72  O         23.4950   30.7320   16.4340 O.2    65  GLY65      -0.2717
     73  N         23.0850   31.5960   18.4110 N.am   66  GLN66      -0.1965
     74  CA        23.1010   30.3110   19.0860 C.3    66  GLN66       0.1733
     75  C         21.7240   29.7210   19.1160 C.2    66  GLN66       0.2616
     76  O         20.7570   30.4840   19.1060 O.2    66  GLN66      -0.2715
     77  CB        23.5400   30.4380   20.5470 C.3    66  GLN66       0.0408
     78  CG        24.9320   30.9690   20.7240 C.3    66  GLN66       0.0908
     79  CD        25.3500   31.2140   22.1730 C.2    66  GLN66       0.2608
     80  OE1       26.5540   31.3010   22.3860 O.2    66  GLN66      -0.2717
     81  NE2       24.5660   31.3320   23.2480 N.am   66  GLN66      -0.0878
     82  N         21.6430   28.3960   19.2680 N.am   67  ILE67      -0.1963
     83  CA        20.3570   27.7330   19.4910 C.3    67  ILE67       0.1727
     84  C         19.9390   27.9240   20.9860 C.2    67  ILE67       0.2616
     85  O         20.5400   27.3900   21.9290 O.2    67  ILE67      -0.2715
     86  CB        20.4740   26.1810   19.1010 C.3    67  ILE67       0.0290
     87  CG1       20.7950   26.0410   17.6200 C.3    67  ILE67       0.0022
     88  CG2       19.1620   25.4150   19.3230 C.3    67  ILE67       0.0023
     89  CD1       19.8440   26.8140   16.6700 C.3    67  ILE67       0.0001
     90  N         18.8490   28.6790   21.2070 N.am   68  VAL68      -0.1977
     91  CA        18.2290   28.8330   22.5350 C.3    68  VAL68       0.1596
     92  C         17.8450   27.4440   23.0750 C.2    68  VAL68       0.2287
     93  O         17.3540   26.5770   22.3470 O.2    68  VAL68      -0.2864
     94  CB        16.9550   29.7640   22.4640 C.3    68  VAL68       0.0276
     95  CG1       16.2900   29.8090   23.8240 C.3    68  VAL68       0.0022
     96  CG2       17.3250   31.2080   22.0930 C.3    68  VAL68       0.0022
     97  N         12.4150   26.9630   24.2290 N.3    73  THR73      -0.1218
     98  CA        11.7890   26.9230   22.9270 C.3    73  THR73       0.1862
     99  C         10.5460   26.0650   22.8510 C.2    73  THR73       0.2287
    100  O          9.4750   26.4900   22.4250 O.2    73  THR73      -0.2866
    101  CB        12.8570   26.4500   21.9240 C.3    73  THR73       0.1770
    102  OG1       14.0280   27.2550   22.1110 O.3    73  THR73      -0.2211
    103  CG2       12.3450   26.5760   20.4880 C.3    73  THR73       0.0375
    104  N          7.7460   27.1970   11.3490 N.3    95  ASP95      -0.1225
    105  CA         8.8570   27.7130   10.6250 C.3    95  ASP95       0.1805
    106  C         10.0770   27.8370   11.5420 C.2    95  ASP95       0.2598
    107  O          9.9390   28.4260   12.6260 O.2    95  ASP95      -0.2718
    108  CB         8.2390   28.9790   10.1030 C.3    95  ASP95       0.1424
    109  CG         9.0970   30.1820    9.8100 C.2    95  ASP95       0.3668
    110  OD1       10.3160   30.0770    9.7080 O.co2  95  ASP95      -0.2456
    111  OD2        8.5240   31.2520    9.6600 O.co2  95  ASP95      -0.2456
    112  N         11.2510   27.3440   11.1350 N.am   96  GLY96      -0.1942
    113  CA        12.4340   27.5510   11.9100 C.3    96  GLY96       0.2014
    114  C         12.6130   26.5440   13.0450 C.2    96  GLY96       0.2638
    115  O         13.4590   26.6900   13.9190 O.2    96  GLY96      -0.2714
    116  N         11.8900   25.4460   13.0790 N.am   97  PHE97      -0.1973
    117  CA        12.0060   24.5160   14.1790 C.3    97  PHE97       0.1639
    118  C         11.7540   23.1810   13.5400 C.2    97  PHE97       0.2290
    119  O         10.8050   23.0880   12.7640 O.2    97  PHE97      -0.2864
    120  CB        10.9410   24.8210   15.2130 C.3    97  PHE97       0.0560
    121  CG        10.9510   23.8150   16.3530 C.ar   97  PHE97      -0.0200
    122  CD1       10.3420   22.5690   16.2170 C.ar   97  PHE97      -0.0042
    123  CD2       11.6000   24.1540   17.5340 C.ar   97  PHE97      -0.0042
    124  CE1       10.3900   21.6470   17.2510 C.ar   97  PHE97      -0.0003
    125  CE2       11.6340   23.2250   18.5610 C.ar   97  PHE97      -0.0003
    126  CZ        11.0400   21.9830   18.4200 C.ar   97  PHE97      -0.0000
    127  N         15.7400   23.0780   15.1170 N.3    99  ARG99      -0.1245
    128  CA        16.9980   23.4950   14.5800 C.3    99  ARG99       0.1563
    129  C         18.1360   22.7010   15.1580 C.2    99  ARG99       0.2260
    130  O         19.3020   23.0390   14.9360 O.2    99  ARG99      -0.2867
    131  CB        17.1700   24.9690   14.8540 C.3    99  ARG99       0.0307
    132  CG        16.7690   25.8020   13.6650 C.3    99  ARG99       0.0489
    133  CD        16.5760   27.2570   14.0240 C.3    99  ARG99       0.2205
    134  NE        16.8280   27.9950   12.8020 N.pl3  99  ARG99      -0.0865
    135  CZ        16.1430   29.0570   12.3950 C.cat  99  ARG99       0.5346
    136  NH1       15.1450   29.5320   13.1370 N.pl3  99  ARG99       0.1354
    137  NH2       16.4340   29.5880   11.1830 N.pl3  99  ARG99       0.1354
    138  N         15.7390   19.0590   20.1030 N.3   103  GLN103     -0.1245
    139  CA        14.4560   19.7310   19.9470 C.3   103  GLN103      0.1566
    140  C         13.5790   18.8630   19.1180 C.2   103  GLN103      0.2260
    141  O         12.3780   18.6900   19.4090 O.2   103  GLN103     -0.2867
    142  CB        14.4760   20.9960   19.1620 C.3   103  GLN103      0.0367
    143  CG        15.4440   21.9750   19.6110 C.3   103  GLN103      0.0905
    144  CD        15.3600   23.2660   18.8510 C.2   103  GLN103      0.2608
    145  OE1       14.7970   23.4140   17.7440 O.2   103  GLN103     -0.2717
    146  NE2       15.9480   24.2310   19.5110 N.am  103  GLN103     -0.0878
    147  N         17.8400   42.6010    3.9460 N.3   134  ARG134     -0.1245
    148  CA        16.8450   42.6030    5.0200 C.3   134  ARG134      0.1563
    149  C         17.3390   43.4810    6.1570 C.2   134  ARG134      0.2260
    150  O         16.5630   44.2310    6.7500 O.2   134  ARG134     -0.2867
    151  CB        16.6110   41.2180    5.5610 C.3   134  ARG134      0.0307
    152  CG        15.2610   41.1960    6.2660 C.3   134  ARG134      0.0489
    153  CD        14.9230   39.7840    6.6380 C.3   134  ARG134      0.2205
    154  NE        15.7830   39.3230    7.7150 N.pl3 134  ARG134     -0.0865
    155  CZ        15.9100   38.0310    8.0780 C.cat 134  ARG134      0.5346
    156  NH1       15.2540   37.0730    7.4690 N.pl3 134  ARG134      0.1354
    157  NH2       16.6980   37.6590    9.0890 N.pl3 134  ARG134      0.1354
    158  N         16.6360   44.3030   11.6840 N.3   140  ARG140     -0.1245
    159  CA        16.5470   43.2790   12.7240 C.3   140  ARG140      0.1563
    160  C         17.9390   43.2480   13.3610 C.2   140  ARG140      0.2260
    161  O         18.9650   43.3160   12.6510 O.2   140  ARG140     -0.2867
    162  CB        16.2400   41.9400   12.1030 C.3   140  ARG140      0.0307
    163  CG        15.3500   41.1600   12.9860 C.3   140  ARG140      0.0489
    164  CD        14.9810   39.8770   12.2980 C.3   140  ARG140      0.2205
    165  NE        15.9890   38.8340   12.3900 N.pl3 140  ARG140     -0.0865
    166  CZ        15.7210   37.5470   12.1570 C.cat 140  ARG140      0.5346
    167  NH1       14.4790   37.1980   11.8090 N.pl3 140  ARG140      0.1354
    168  NH2       16.6840   36.6050   12.2860 N.pl3 140  ARG140      0.1354
    169  N         20.0960   40.8570   14.7770 N.3   142  ASP142     -0.1239
    170  CA        21.0770   39.8930   14.2820 C.3   142  ASP142      0.1674
    171  C         21.4000   39.9700   12.7650 C.2   142  ASP142      0.2266
    172  O         22.2390   39.2060   12.2690 O.2   142  ASP142     -0.2867
    173  CB        20.5900   38.4640   14.6640 C.3   142  ASP142      0.1410
    174  CG        19.1680   38.0840   14.2360 C.2   142  ASP142      0.3668
    175  OD1       18.3650   38.9500   13.9430 O.co2 142  ASP142     -0.2456
    176  OD2       18.8280   36.9210   14.1750 O.co2 142  ASP142     -0.2456
    177  N         25.3370   32.7480   12.5650 N.3   151  ARG151     -0.1245
    178  CA        24.1180   32.0510   12.1240 C.3   151  ARG151      0.1563
    179  C         24.3950   31.0700   10.9560 C.2   151  ARG151      0.2260
    180  O         23.9130   29.9220   10.9850 O.2   151  ARG151     -0.2867
    181  CB        23.1060   33.1120   11.7260 C.3   151  ARG151      0.0307
    182  CG        22.6360   33.9340   12.8870 C.3   151  ARG151      0.0489
    183  CD        22.1020   35.2220   12.3750 C.3   151  ARG151      0.2205
    184  NE        20.8820   35.0210   11.6700 N.pl3 151  ARG151     -0.0865
    185  CZ        20.2790   36.0310   11.0210 C.cat 151  ARG151      0.5346
    186  NH1       20.7980   37.2390   10.9900 N.pl3 151  ARG151      0.1354
    187  NH2       19.0660   35.8840   10.4870 N.pl3 151  ARG151      0.1354
@<TRIPOS>BOND
     1    11    10    2
     2    10     9    1
     3   147   148    1
     4    12    13    1
     5     9     8    1
     6   148   151    1
     7   148   149    1
     8    13    14    1
     9    13    16    1
    10    15    14    2
    11     4     3    2
    12   151   152    1
    13     8     3   am
    14    17    16    1
    15    17    18    1
    16   149   150    2
    17     3     2    1
    18   152   153    1
    19   153   154    1
    20    18    19    1
    21     1     2    1
    22     1     7    1
    23   156   155    1
    24     2     5    1
    25    20    19    1
    26   154   155    2
    27     7     6    1
    28   155   157    1
    29     6     5    1
    30   111   109   ar
    31   110   109   ar
    32   109   108    1
    33   108   105    1
    34   187   185    1
    35   105   104    1
    36   105   106    1
    37   179   180    2
    38   179   178    1
    39   186   185    1
    40   185   184    2
    41   112   106   am
    42   112   113    1
    43   137   135    1
    44   106   107    2
    45   184   183    1
    46   158   159    1
    47   181   178    1
    48   181   182    1
    49   167   166    1
    50   113   114    1
    51   162   159    1
    52   162   163    1
    53   178   177    1
    54   166   168    1
    55   166   165    2
    56   172   171    2
    57   164   165    1
    58   164   163    1
    59   183   182    1
    60   135   134    2
    61   135   136    1
    62   161   160    2
    63   159   160    1
    64   119   118    2
    65   171   170    1
    66   134   133    1
    67    25    26    1
    68    25    22    1
    69   114   116   am
    70   114   115    2
    71   116   117    1
    72   118   117    1
    73    22    21    1
    74    22    23    1
    75   132   133    1
    76   132   131    1
    77   175   174   ar
    78    54    52    1
    79   176   174   ar
    80   117   120    1
    81   174   173    1
    82   170   173    1
    83   170   169    1
    84   128   131    1
    85   128   127    1
    86   128   129    1
    87   130   129    2
    88    23    27   am
    89    23    24    2
    90    52    53    1
    91    52    51    2
    92    27    28    1
    93   120   121    1
    94    32    33    1
    95    32    29   am
    96    51    50    1
    97    33    34    1
    98    31    28    1
    99   122   121   ar
   100   122   124   ar
   101    28    29    1
   102   121   123   ar
   103    72    71    2
   104    70    71    1
   105    70    69    1
   106    34    35    2
   107    29    30    2
   108    89    87    1
   109    50    49    1
   110    71    73   am
   111   124   126   ar
   112    64    63    2
   113   123   125   ar
   114    87    86    1
   115   145   144    2
   116    67    65    1
   117    49    48    1
   118    73    74    1
   119   126   125   ar
   120    63    62    1
   121   144   146   am
   122   144   143    1
   123    48    45    1
   124    62    65    1
   125    62    61    1
   126    65    66    1
   127    74    75    1
   128    74    77    1
   129    86    88    1
   130    86    83    1
   131    76    75    2
   132    75    82   am
   133   140   141    2
   134   140   139    1
   135   142   143    1
   136   142   139    1
   137    66    68    1
   138    82    83    1
   139    83    84    1
   140    42    41    1
   141    58    57    2
   142   139   138    1
   143    44    45    1
   144    44    38   am
   145    36    37    1
   146    45    46    1
   147    61    57   am
   148    40    41    1
   149    40    37    1
   150   103   101    1
   151    77    78    1
   152    57    56    1
   153    41    43    1
   154    78    79    1
   155    84    90   am
   156    84    85    2
   157    37    38    1
   158    46    47    2
   159    38    39    2
   160    90    91    1
   161   101   102    1
   162   101    98    1
   163    56    59    1
   164    56    55    1
   165    96    94    1
   166    79    80    2
   167    79    81   am
   168    59    60    1
   169    93    92    2
   170   100    99    2
   171    94    91    1
   172    94    95    1
   173    91    92    1
   174    99    98    1
   175    98    97    1
