@<TRIPOS>MOLECULE
tmp/1ukzA00.pdb
 165 155 0 0 0
SMALL
GASTEIGER

@<TRIPOS>ATOM
      1  N         18.8300   30.4570    7.3790 N.3    17  PRO17      -0.2102
      2  CA        18.2570   31.7960    7.5370 C.3    17  PRO17       0.1504
      3  C         18.2500   32.5390    6.1940 C.2    17  PRO17       0.2576
      4  O         19.2450   32.5040    5.4570 O.2    17  PRO17      -0.2718
      5  CB        19.1930   32.4500    8.5550 C.3    17  PRO17       0.0282
      6  CG        20.5150   31.7980    8.2860 C.3    17  PRO17       0.0208
      7  CD        20.1350   30.3440    8.0600 C.3    17  PRO17       0.0893
      8  N         17.1140   33.1510    5.8650 N.am   18  GLY18      -0.1943
      9  CA        16.9850   33.9000    4.6260 C.3    18  GLY18       0.2014
     10  C         16.6770   33.0570    3.4060 C.2    18  GLY18       0.2639
     11  O         16.7850   33.5390    2.2900 O.2    18  GLY18      -0.2714
     12  N         16.3190   31.7910    3.6100 N.am   19  ALA19      -0.1963
     13  CA        15.9920   30.8860    2.5120 C.3    19  ALA19       0.1728
     14  C         14.6220   31.2160    1.9360 C.2    19  ALA19       0.2617
     15  O         14.2950   30.7630    0.8460 O.2    19  ALA19      -0.2715
     16  CB        16.0140   29.4440    2.9910 C.3    19  ALA19       0.0334
     17  N         13.8100   31.9520    2.7030 N.am   20  GLY20      -0.1940
     18  CA        12.4750   32.3320    2.2650 C.3    20  GLY20       0.2014
     19  C         11.3620   31.5880    2.9800 C.2    20  GLY20       0.2639
     20  O         10.2140   31.5900    2.5260 O.2    20  GLY20      -0.2714
     21  N         11.6770   30.9770    4.1200 N.am   21  LYS21      -0.1963
     22  CA        10.6920   30.2090    4.8740 C.3    21  LYS21       0.1728
     23  C          9.5130   31.0440    5.3180 C.2    21  LYS21       0.2617
     24  O          8.3640   30.7110    5.0240 O.2    21  LYS21      -0.2715
     25  CB        11.3440   29.5510    6.0850 C.3    21  LYS21       0.0311
     26  CG        12.4560   28.5760    5.7070 C.3    21  LYS21       0.0038
     27  CD        13.0580   27.9090    6.9290 C.3    21  LYS21       0.0206
     28  CE        13.4950   28.9290    7.9570 C.3    21  LYS21       0.1093
     29  NZ        14.6370   29.7420    7.4650 N.3    21  LYS21      -0.1314
     30  N          9.8010   32.1480    5.9950 N.am   22  GLY22      -0.1940
     31  CA         8.7550   33.0200    6.4810 C.3    22  GLY22       0.2014
     32  C          7.9330   33.5650    5.3410 C.2    22  GLY22       0.2640
     33  O          6.7060   33.5850    5.4090 O.2    22  GLY22      -0.2714
     34  N          8.6040   33.9860    4.2780 N.am   23  THR23      -0.1936
     35  CA         7.9270   34.5240    3.1050 C.3    23  THR23       0.2028
     36  C          6.9220   33.5370    2.5000 C.2    23  THR23       0.2642
     37  O          5.7520   33.8830    2.2840 O.2    23  THR23      -0.2714
     38  CB         8.9570   34.9300    2.0380 C.3    23  THR23       0.1808
     39  OG1        9.7370   36.0140    2.5490 O.3    23  THR23      -0.2208
     40  CG2        8.2690   35.3520    0.7180 C.3    23  THR23       0.0379
     41  N          7.3550   32.3020    2.2750 N.am   24  GLN24      -0.1976
     42  CA         6.4920   31.2780    1.6860 C.3    24  GLN24       0.1601
     43  C          5.3750   30.8410    2.6100 C.2    24  GLN24       0.2287
     44  O          4.2540   30.5930    2.1570 O.2    24  GLN24      -0.2864
     45  CB         7.3100   30.0740    1.2210 C.3    24  GLN24       0.0394
     46  CG         8.2760   30.4140    0.0720 C.3    24  GLN24       0.0908
     47  CD         7.5640   30.9430   -1.1690 C.2    24  GLN24       0.2608
     48  OE1        8.0280   31.8790   -1.8250 O.2    24  GLN24      -0.2717
     49  NE2        6.4470   30.3380   -1.4990 N.am   24  GLN24      -0.0878
     50  N          7.6380   26.8420   11.1280 N.3    95  ASP95      -0.1239
     51  CA         8.8070   27.3300   10.4530 C.3    95  ASP95       0.1674
     52  C          9.9920   27.5730   11.3950 C.2    95  ASP95       0.2266
     53  O          9.8590   28.2010   12.4440 O.2    95  ASP95      -0.2867
     54  CB         8.3310   28.5220    9.5730 C.3    95  ASP95       0.1410
     55  CG         9.2360   29.7430    9.5860 C.2    95  ASP95       0.3668
     56  OD1       10.4640   29.6430    9.6970 O.co2  95  ASP95      -0.2456
     57  OD2        8.6830   30.8460    9.3970 O.co2  95  ASP95      -0.2456
     58  N         15.4970   22.6790   14.8840 N.3    99  ARG99      -0.1245
     59  CA        16.8050   23.0920   14.4130 C.3    99  ARG99       0.1563
     60  C         17.9430   22.3350   15.0620 C.2    99  ARG99       0.2260
     61  O         19.0990   22.6110   14.8050 O.2    99  ARG99      -0.2867
     62  CB        16.9760   24.5970   14.6110 C.3    99  ARG99       0.0307
     63  CG        16.4100   25.4040   13.4660 C.3    99  ARG99       0.0489
     64  CD        16.5070   26.8850   13.7000 C.3    99  ARG99       0.2205
     65  NE        16.4450   27.6000   12.4300 N.pl3  99  ARG99      -0.0865
     66  CZ        15.7210   28.6910   12.2040 C.cat  99  ARG99       0.5346
     67  NH1       14.9710   29.2110   13.1620 N.pl3  99  ARG99       0.1354
     68  NH2       15.7790   29.2860   11.0190 N.pl3  99  ARG99       0.1354
     69  N         20.1360   37.9130    0.6700 N.3   130  ARG130     -0.1245
     70  CA        18.7820   38.1830    1.1730 C.3   130  ARG130      0.1563
     71  C         18.7810   38.7070    2.6100 C.2   130  ARG130      0.2260
     72  O         17.9820   39.5730    2.9510 O.2   130  ARG130     -0.2867
     73  CB        17.9170   36.9380    1.0860 C.3   130  ARG130      0.0307
     74  CG        17.5610   36.5880   -0.3290 C.3   130  ARG130      0.0489
     75  CD        16.7440   35.3360   -0.3490 C.3   130  ARG130      0.2205
     76  NE        16.5440   34.8670   -1.7080 N.pl3 130  ARG130     -0.0865
     77  CZ        15.9710   33.7130   -2.0090 C.cat 130  ARG130      0.5346
     78  NH1       15.5420   32.9200   -1.0360 N.pl3 130  ARG130      0.1354
     79  NH2       15.8490   33.3480   -3.2770 N.pl3 130  ARG130      0.1354
     80  N         20.0910   42.3210    2.7010 N.3   133  GLU133     -0.1231
     81  CA        19.0170   43.1690    2.2050 C.3   133  GLU133      0.1699
     82  C         17.9480   43.3110    3.2900 C.2   133  GLU133      0.2592
     83  O         17.4530   44.4110    3.5430 O.2   133  GLU133     -0.2718
     84  CB        18.3930   42.5710    0.9440 C.3   133  GLU133      0.0402
     85  CG        18.9560   43.1390   -0.3470 C.3   133  GLU133      0.1161
     86  CD        18.8510   44.6650   -0.4170 C.2   133  GLU133      0.3649
     87  OE1       17.7190   45.2060   -0.3360 O.co2 133  GLU133     -0.2457
     88  OE2       19.9090   45.3230   -0.5470 O.co2 133  GLU133     -0.2457
     89  N         17.6120   42.2000    3.9430 N.am  134  ARG134     -0.1980
     90  CA        16.6180   42.2000    5.0090 C.3   134  ARG134      0.1597
     91  C         17.1030   43.0240    6.1890 C.2   134  ARG134      0.2287
     92  O         16.3150   43.7060    6.8270 O.2   134  ARG134     -0.2864
     93  CB        16.3010   40.7810    5.4720 C.3   134  ARG134      0.0334
     94  CG        15.0110   40.6940    6.2650 C.3   134  ARG134      0.0492
     95  CD        14.6420   39.2670    6.5720 C.3   134  ARG134      0.2205
     96  NE        15.4730   38.7360    7.6400 N.pl3 134  ARG134     -0.0865
     97  CZ        15.4480   37.4800    8.0600 C.cat 134  ARG134      0.5346
     98  NH1       14.6260   36.5950    7.5030 N.pl3 134  ARG134      0.1354
     99  NH2       16.2600   37.1090    9.0360 N.pl3 134  ARG134      0.1354
    100  N         16.3850   46.5720    5.2150 N.3   137  THR137     -0.1218
    101  CA        14.9470   46.7730    5.1380 C.3   137  THR137      0.1862
    102  C         14.2760   46.7780    6.5140 C.2   137  THR137      0.2287
    103  O         13.7050   47.7890    6.9230 O.2   137  THR137     -0.2866
    104  CB        14.2720   45.6880    4.2420 C.3   137  THR137      0.1770
    105  OG1       14.8670   45.6930    2.9350 O.3   137  THR137     -0.2211
    106  CG2       12.7700   45.9570    4.1060 C.3   137  THR137      0.0375
    107  N         16.3920   43.8440   11.7880 N.3   140  ARG140     -0.1245
    108  CA        16.3580   42.7990   12.8170 C.3   140  ARG140      0.1563
    109  C         17.7510   42.8000   13.4130 C.2   140  ARG140      0.2260
    110  O         18.7410   42.8540   12.6760 O.2   140  ARG140     -0.2867
    111  CB        16.0980   41.4320   12.1900 C.3   140  ARG140      0.0307
    112  CG        14.9790   40.6760   12.8230 C.3   140  ARG140      0.0489
    113  CD        14.6970   39.4120   12.0490 C.3   140  ARG140      0.2205
    114  NE        15.6670   38.3560   12.3250 N.pl3 140  ARG140     -0.0865
    115  CZ        15.4400   37.0670   12.0930 C.cat 140  ARG140      0.5346
    116  NH1       14.2770   36.6940   11.5800 N.pl3 140  ARG140      0.1354
    117  NH2       16.3750   36.1550   12.3380 N.pl3 140  ARG140      0.1354
    118  N         24.9690   32.2070   12.3810 N.3   151  ARG151     -0.1245
    119  CA        23.7210   31.5280   12.0160 C.3   151  ARG151      0.1563
    120  C         23.9640   30.4890   10.9130 C.2   151  ARG151      0.2260
    121  O         23.4400   29.3760   10.9900 O.2   151  ARG151     -0.2867
    122  CB        22.6650   32.5550   11.5990 C.3   151  ARG151      0.0307
    123  CG        22.2290   33.4330   12.7720 C.3   151  ARG151      0.0489
    124  CD        21.6900   34.7390   12.2900 C.3   151  ARG151      0.2205
    125  NE        20.4190   34.5620   11.6100 N.pl3 151  ARG151     -0.0865
    126  CZ        19.7990   35.5250   10.9450 C.cat 151  ARG151      0.5346
    127  NH1       20.3480   36.7260   10.8520 N.pl3 151  ARG151      0.1354
    128  NH2       18.5860   35.3130   10.4620 N.pl3 151  ARG151      0.1354
    129  N         15.2040   27.3210   -3.2510 N.3   177  CYS177     -0.1235
    130  CA        14.9210   28.6660   -2.7730 C.3   177  CYS177      0.1677
    131  C         15.2930   29.7610   -3.7720 C.2   177  CYS177      0.2270
    132  O         14.7830   30.8710   -3.7230 O.2   177  CYS177     -0.2867
    133  CB        15.7820   28.9250   -1.5500 C.3   177  CYS177      0.0956
    134  SG        17.4550   29.4160   -2.0970 S.3   177  CYS177     -0.0801
    135  N         14.7670   31.1580   -6.6540 N.3   179  ARG179     -0.1231
    136  CA        13.9440   31.5730   -7.7760 C.3   179  ARG179      0.1694
    137  C         13.1160   32.7340   -7.2430 C.2   179  ARG179      0.2593
    138  O         13.2840   33.1260   -6.0920 O.2   179  ARG179     -0.2718
    139  CB        13.0770   30.4050   -8.2670 C.3   179  ARG179      0.0321
    140  CG        13.8550   29.4260   -9.1500 C.3   179  ARG179      0.0489
    141  CD        13.1200   28.1230   -9.3570 C.3   179  ARG179      0.2205
    142  NE        12.9810   27.4010   -8.0940 N.pl3 179  ARG179     -0.0865
    143  CZ        11.8160   27.0100   -7.5830 C.cat 179  ARG179      0.5346
    144  NH1       10.6860   27.2620   -8.2340 N.pl3 179  ARG179      0.1354
    145  NH2       11.7720   26.3870   -6.4120 N.pl3 179  ARG179      0.1354
    146  N         12.2910   33.3510   -8.0740 N.am  180  SER180     -0.1938
    147  CA        11.4780   34.4550   -7.5860 C.3   180  SER180      0.2055
    148  C         10.4850   33.8970   -6.5720 C.2   180  SER180      0.2642
    149  O         10.2100   32.6880   -6.5450 O.2   180  SER180     -0.2714
    150  CB        10.7150   35.1230   -8.7330 C.3   180  SER180      0.2130
    151  OG         9.8810   34.1880   -9.4030 O.3   180  SER180     -0.2179
    152  N          9.9450   34.7870   -5.7500 N.am  181  VAL181     -0.1977
    153  CA         8.9670   34.4120   -4.7430 C.3   181  VAL181      0.1596
    154  C          7.8420   33.6160   -5.4020 C.2   181  VAL181      0.2287
    155  O          7.4680   32.5460   -4.9130 O.2   181  VAL181     -0.2864
    156  CB         8.3830   35.6620   -4.0520 C.3   181  VAL181      0.0276
    157  CG1        7.2470   35.2730   -3.1180 C.3   181  VAL181      0.0022
    158  CG2        9.4730   36.3900   -3.2960 C.3   181  VAL181      0.0022
    159  N          9.0260   30.1350   -6.6770 N.3   184  VAL184     -0.1245
    160  CA         9.2530   29.2280   -5.5610 C.3   184  VAL184      0.1561
    161  C          7.9070   28.7640   -5.0300 C.2   184  VAL184      0.2260
    162  O          7.7050   27.5800   -4.7630 O.2   184  VAL184     -0.2867
    163  CB        10.0050   29.9090   -4.4230 C.3   184  VAL184      0.0252
    164  CG1       10.0890   28.9770   -3.2210 C.3   184  VAL184      0.0019
    165  CG2       11.3740   30.2920   -4.8850 C.3   184  VAL184      0.0019
@<TRIPOS>BOND
     1   151   150    1
     2   141   140    1
     3   141   142    1
     4   140   139    1
     5   150   147    1
     6   139   136    1
     7   144   143    1
     8   142   143    2
     9   146   147    1
    10   146   137   am
    11   136   137    1
    12   136   135    1
    13   147   148    1
    14   143   145    1
    15   137   138    2
    16   159   160    1
    17   148   149    2
    18   148   152   am
    19   152   153    1
    20   160   161    1
    21   160   163    1
    22   154   155    2
    23   154   153    1
    24   161   162    2
    25   165   163    1
    26   153   156    1
    27   163   164    1
    28   156   158    1
    29   156   157    1
    30   131   132    2
    31   131   130    1
    32    79    77    1
    33   129   130    1
    34   130   133    1
    35   134   133    1
    36    77    76    2
    37    77    78    1
    38    48    47    2
    39    76    75    1
    40    49    47   am
    41    47    46    1
    42    88    86   ar
    43    86    85    1
    44    86    87   ar
    45    75    74    1
    46    85    84    1
    47    74    73    1
    48    46    45    1
    49    69    70    1
    50    40    38    1
    51    15    14    2
    52    84    81    1
    53    73    70    1
    54    70    71    1
    55    45    42    1
    56    42    41    1
    57    42    43    1
    58    14    13    1
    59    14    17   am
    60    38    39    1
    61    38    35    1
    62    44    43    2
    63    81    80    1
    64    81    82    1
    65    18    17    1
    66    18    19    1
    67    41    36   am
    68    37    36    2
    69    11    10    2
    70    36    35    1
    71    13    16    1
    72    13    12    1
    73    20    19    2
    74    71    72    2
    75   105   104    1
    76    19    21   am
    77    35    34    1
    78    82    83    2
    79    82    89   am
    80    10    12   am
    81    10     9    1
    82    89    90    1
    83   106   104    1
    84    21    22    1
    85   104   101    1
    86    34    32   am
    87     9     8    1
    88    22    23    1
    89    22    25    1
    90    90    93    1
    91    90    91    1
    92    24    23    2
    93   101   100    1
    94   101   102    1
    95    23    30   am
    96    32    33    2
    97    32    31    1
    98     4     3    2
    99    93    94    1
   100    26    25    1
   101    26    27    1
   102     8     3   am
   103    30    31    1
   104    91    92    2
   105     3     2    1
   106    94    95    1
   107   102   103    2
   108    95    96    1
   109    27    28    1
   110     1     2    1
   111     1     7    1
   112    29    28    1
   113    98    97    1
   114     2     5    1
   115    96    97    2
   116     7     6    1
   117    97    99    1
   118     6     5    1
   119    57    55   ar
   120    54    55    1
   121    54    51    1
   122    55    56   ar
   123    51    50    1
   124    51    52    1
   125   128   126    1
   126   127   126    1
   127   120   121    2
   128   120   119    1
   129   126   125    2
   130    68    66    1
   131    52    53    2
   132   116   115    1
   133   122   119    1
   134   122   123    1
   135   125   124    1
   136   107   108    1
   137   119   118    1
   138   113   114    1
   139   113   112    1
   140   115   114    2
   141   115   117    1
   142   111   108    1
   143   111   112    1
   144    66    65    2
   145    66    67    1
   146   124   123    1
   147    65    64    1
   148   110   109    2
   149   108   109    1
   150    63    64    1
   151    63    62    1
   152    59    62    1
   153    59    58    1
   154    59    60    1
   155    61    60    2
