@<TRIPOS>MOLECULE
tmp/1ukzA01.pdb
 183 171 0 0 0
SMALL
GASTEIGER

@<TRIPOS>ATOM
      1  N         18.8300   30.4570    7.3790 N.3    17  PRO17      -0.2116
      2  CA        18.2570   31.7960    7.5370 C.3    17  PRO17       0.1372
      3  C         18.2500   32.5390    6.1940 C.2    17  PRO17       0.2244
      4  O         19.2450   32.5040    5.4570 O.2    17  PRO17      -0.2868
      5  CB        19.1930   32.4500    8.5550 C.3    17  PRO17       0.0268
      6  CG        20.5150   31.7980    8.2860 C.3    17  PRO17       0.0207
      7  CD        20.1350   30.3440    8.0600 C.3    17  PRO17       0.0892
      8  N         11.6770   30.9770    4.1200 N.3    21  LYS21      -0.1245
      9  CA        10.6920   30.2090    4.8740 C.3    21  LYS21       0.1561
     10  C          9.5130   31.0440    5.3180 C.2    21  LYS21       0.2260
     11  O          8.3640   30.7110    5.0240 O.2    21  LYS21      -0.2867
     12  CB        11.3440   29.5510    6.0850 C.3    21  LYS21       0.0271
     13  CG        12.4560   28.5760    5.7070 C.3    21  LYS21       0.0035
     14  CD        13.0580   27.9090    6.9290 C.3    21  LYS21       0.0206
     15  CE        13.4950   28.9290    7.9570 C.3    21  LYS21       0.1093
     16  NZ        14.6370   29.7420    7.4650 N.3    21  LYS21      -0.1314
     17  N          6.1370   30.4880   13.7370 N.3    38  SER38      -0.1202
     18  CA         7.5600   30.7070   13.5190 C.3    38  SER38       0.2020
     19  C          8.2900   30.5740   14.8570 C.2    38  SER38       0.2619
     20  O          7.9750   31.2790   15.8140 O.2    38  SER38      -0.2717
     21  CB         7.7980   32.0980   12.9150 C.3    38  SER38       0.2103
     22  OG         9.1730   32.4580   12.9480 O.3    38  SER38      -0.2182
     23  N          9.2760   29.6900   14.9220 N.am   39  ALA39      -0.1965
     24  CA        10.0000   29.5020   16.1590 C.3    39  ALA39       0.1728
     25  C         10.7460   30.7870   16.4930 C.2    39  ALA39       0.2616
     26  O         10.7430   31.2150   17.6390 O.2    39  ALA39      -0.2715
     27  CB        10.9450   28.3240   16.0500 C.3    39  ALA39       0.0334
     28  N         11.3330   31.4360   15.4960 N.am   40  GLY40      -0.1955
     29  CA        12.0380   32.6820   15.7480 C.3    40  GLY40       0.1869
     30  C         11.1160   33.7400   16.3310 C.2    40  GLY40       0.2309
     31  O         11.4840   34.4750   17.2540 O.2    40  GLY40      -0.2863
     32  N         10.1770   32.9780   19.9470 N.3    43  LEU43      -0.1231
     33  CA        11.3100   33.2840   20.8060 C.3    43  LEU43       0.1693
     34  C         11.4590   34.7730   20.9960 C.2    43  LEU43       0.2591
     35  O         11.6680   35.2440   22.1110 O.2    43  LEU43      -0.2718
     36  CB        12.5930   32.7120   20.2200 C.3    43  LEU43       0.0284
     37  CG        12.7020   31.2040   20.3510 C.3    43  LEU43       0.0019
     38  CD1       13.8900   30.7480   19.5180 C.3    43  LEU43       0.0001
     39  CD2       12.8440   30.8040   21.8240 C.3    43  LEU43       0.0001
     40  N         11.3550   35.5230   19.9120 N.am   44  ARG44      -0.1980
     41  CA        11.4730   36.9620   20.0130 C.3    44  ARG44       0.1597
     42  C         10.3620   37.5710   20.8720 C.2    44  ARG44       0.2287
     43  O         10.5790   38.5640   21.5710 O.2    44  ARG44      -0.2864
     44  CB        11.5010   37.5810   18.6360 C.3    44  ARG44       0.0334
     45  CG        12.8380   37.4480   17.9710 C.3    44  ARG44       0.0492
     46  CD        12.8460   38.1910   16.6510 C.3    44  ARG44       0.2205
     47  NE        12.0590   37.5020   15.6280 N.pl3  44  ARG44      -0.0865
     48  CZ        12.5040   36.4860   14.9000 C.cat  44  ARG44       0.5346
     49  NH1       13.7350   36.0370   15.0700 N.pl3  44  ARG44       0.1354
     50  NH2       11.6970   35.8930   14.0330 N.pl3  44  ARG44       0.1354
     51  N         21.3330   34.1860   22.8130 N.3    61  CYS61      -0.1221
     52  CA        21.3390   33.0850   21.8690 C.3    61  CYS61       0.1808
     53  C         21.1410   33.6070   20.4460 C.2    61  CYS61       0.2601
     54  O         21.8980   33.2480   19.5490 O.2    61  CYS61      -0.2717
     55  CB        20.2500   32.0780   22.2190 C.3    61  CYS61       0.0970
     56  SG        20.6920   30.9950   23.5720 S.3    61  CYS61      -0.0800
     57  N         20.1500   34.4780   20.2540 N.am   62  ILE62      -0.1979
     58  CA        19.8480   35.0580   18.9380 C.3    62  ILE62       0.1595
     59  C         21.0390   35.8280   18.3460 C.2    62  ILE62       0.2287
     60  O         21.4130   35.6060   17.1890 O.2    62  ILE62      -0.2864
     61  CB        18.5600   35.9570   18.9790 C.3    62  ILE62       0.0276
     62  CG1       17.3180   35.0770   19.1700 C.3    62  ILE62       0.0022
     63  CG2       18.4490   36.8250   17.7140 C.3    62  ILE62       0.0022
     64  CD1       15.9980   35.8490   19.3000 C.3    62  ILE62       0.0001
     65  N         23.5750   33.5030   17.2630 N.3    65  GLY65      -0.1210
     66  CA        23.0890   32.5130   16.3190 C.3    65  GLY65       0.1956
     67  C         23.0430   31.1290   16.9290 C.2    65  GLY65       0.2612
     68  O         23.1470   30.1300   16.2260 O.2    65  GLY65      -0.2717
     69  N         22.8600   31.0670   18.2430 N.am   66  GLN66      -0.1965
     70  CA        22.8120   29.8020   18.9670 C.3    66  GLN66       0.1733
     71  C         21.4110   29.2450   19.0660 C.2    66  GLN66       0.2616
     72  O         20.4340   29.9890   19.0550 O.2    66  GLN66      -0.2715
     73  CB        23.3220   29.9840   20.3990 C.3    66  GLN66       0.0408
     74  CG        24.7360   30.4980   20.5250 C.3    66  GLN66       0.0908
     75  CD        25.1800   30.6800   21.9790 C.2    66  GLN66       0.2608
     76  OE1       26.3740   30.6190   22.2690 O.2    66  GLN66      -0.2717
     77  NE2       24.2290   30.8990   22.8930 N.am   66  GLN66      -0.0878
     78  N         21.3300   27.9320   19.2180 N.am   67  ILE67      -0.1963
     79  CA        20.0520   27.2480   19.3880 C.3    67  ILE67       0.1727
     80  C         19.6280   27.3930   20.8680 C.2    67  ILE67       0.2616
     81  O         20.3400   26.9650   21.7710 O.2    67  ILE67      -0.2715
     82  CB        20.1590   25.7330   18.9870 C.3    67  ILE67       0.0290
     83  CG1       20.4880   25.6120   17.4990 C.3    67  ILE67       0.0022
     84  CG2       18.8740   24.9710   19.3000 C.3    67  ILE67       0.0023
     85  CD1       19.5220   26.3530   16.5850 C.3    67  ILE67       0.0001
     86  N         18.5060   28.0690   21.0980 N.am   68  VAL68      -0.1977
     87  CA        17.9730   28.2500   22.4420 C.3    68  VAL68       0.1596
     88  C         17.5970   26.8670   22.9600 C.2    68  VAL68       0.2287
     89  O         17.0720   26.0460   22.2080 O.2    68  VAL68      -0.2864
     90  CB        16.7180   29.1730   22.4090 C.3    68  VAL68       0.0276
     91  CG1       16.0440   29.2490   23.7750 C.3    68  VAL68       0.0022
     92  CG2       17.1060   30.5720   21.9380 C.3    68  VAL68       0.0022
     93  N         12.2110   26.4490   24.1200 N.3    73  THR73      -0.1218
     94  CA        11.6490   26.4260   22.7780 C.3    73  THR73       0.1862
     95  C         10.4150   25.5530   22.6550 C.2    73  THR73       0.2287
     96  O          9.3960   25.9720   22.1030 O.2    73  THR73      -0.2866
     97  CB        12.7050   25.9630   21.7660 C.3    73  THR73       0.1770
     98  OG1       13.8840   26.7630   21.9230 O.3    73  THR73      -0.2211
     99  CG2       12.1810   26.0970   20.3440 C.3    73  THR73       0.0375
    100  N          7.6380   26.8420   11.1280 N.3    95  ASP95      -0.1225
    101  CA         8.8070   27.3300   10.4530 C.3    95  ASP95       0.1805
    102  C          9.9920   27.5730   11.3950 C.2    95  ASP95       0.2598
    103  O          9.8590   28.2010   12.4440 O.2    95  ASP95      -0.2718
    104  CB         8.3310   28.5220    9.5730 C.3    95  ASP95       0.1424
    105  CG         9.2360   29.7430    9.5860 C.2    95  ASP95       0.3668
    106  OD1       10.4640   29.6430    9.6970 O.co2  95  ASP95      -0.2456
    107  OD2        8.6830   30.8460    9.3970 O.co2  95  ASP95      -0.2456
    108  N         11.1320   26.9890   11.0430 N.am   96  GLY96      -0.1942
    109  CA        12.3330   27.1630   11.8390 C.3    96  GLY96       0.2014
    110  C         12.4870   26.2080   13.0020 C.2    96  GLY96       0.2638
    111  O         13.2680   26.4460   13.9070 O.2    96  GLY96      -0.2714
    112  N         11.7480   25.1140   12.9750 N.am   97  PHE97      -0.1973
    113  CA        11.8320   24.1300   14.0340 C.3    97  PHE97       0.1639
    114  C         11.5070   22.8100   13.3780 C.2    97  PHE97       0.2290
    115  O         10.6010   22.7540   12.5580 O.2    97  PHE97      -0.2864
    116  CB        10.8060   24.4390   15.1200 C.3    97  PHE97       0.0560
    117  CG        10.7670   23.4180   16.2230 C.ar   97  PHE97      -0.0200
    118  CD1       10.1730   22.1770   16.0210 C.ar   97  PHE97      -0.0042
    119  CD2       11.3380   23.6910   17.4560 C.ar   97  PHE97      -0.0042
    120  CE1       10.1590   21.2250   17.0230 C.ar   97  PHE97      -0.0003
    121  CE2       11.3230   22.7420   18.4610 C.ar   97  PHE97      -0.0003
    122  CZ        10.7380   21.5100   18.2440 C.ar   97  PHE97      -0.0000
    123  N         15.4970   22.6790   14.8840 N.3    99  ARG99      -0.1245
    124  CA        16.8050   23.0920   14.4130 C.3    99  ARG99       0.1563
    125  C         17.9430   22.3350   15.0620 C.2    99  ARG99       0.2260
    126  O         19.0990   22.6110   14.8050 O.2    99  ARG99      -0.2867
    127  CB        16.9760   24.5970   14.6110 C.3    99  ARG99       0.0307
    128  CG        16.4100   25.4040   13.4660 C.3    99  ARG99       0.0489
    129  CD        16.5070   26.8850   13.7000 C.3    99  ARG99       0.2205
    130  NE        16.4450   27.6000   12.4300 N.pl3  99  ARG99      -0.0865
    131  CZ        15.7210   28.6910   12.2040 C.cat  99  ARG99       0.5346
    132  NH1       14.9710   29.2110   13.1620 N.pl3  99  ARG99       0.1354
    133  NH2       15.7790   29.2860   11.0190 N.pl3  99  ARG99       0.1354
    134  N         15.5340   18.6710   20.0840 N.3   103  GLN103     -0.1245
    135  CA        14.1840   19.2130   19.9770 C.3   103  GLN103      0.1566
    136  C         13.3550   18.5030   18.9160 C.2   103  GLN103      0.2260
    137  O         12.1270   18.4500   19.0120 O.2   103  GLN103     -0.2867
    138  CB        14.2020   20.7300   19.7690 C.3   103  GLN103      0.0367
    139  CG        15.0750   21.2160   18.6490 C.3   103  GLN103      0.0905
    140  CD        14.9730   22.7110   18.4330 C.2   103  GLN103      0.2608
    141  OE1       14.4840   23.1500   17.3910 O.2   103  GLN103     -0.2717
    142  NE2       15.4220   23.5020   19.4050 N.am  103  GLN103     -0.0878
    143  N         17.6120   42.2000    3.9430 N.3   134  ARG134     -0.1245
    144  CA        16.6180   42.2000    5.0090 C.3   134  ARG134      0.1563
    145  C         17.1030   43.0240    6.1890 C.2   134  ARG134      0.2260
    146  O         16.3150   43.7060    6.8270 O.2   134  ARG134     -0.2867
    147  CB        16.3010   40.7810    5.4720 C.3   134  ARG134      0.0307
    148  CG        15.0110   40.6940    6.2650 C.3   134  ARG134      0.0489
    149  CD        14.6420   39.2670    6.5720 C.3   134  ARG134      0.2205
    150  NE        15.4730   38.7360    7.6400 N.pl3 134  ARG134     -0.0865
    151  CZ        15.4480   37.4800    8.0600 C.cat 134  ARG134      0.5346
    152  NH1       14.6260   36.5950    7.5030 N.pl3 134  ARG134      0.1354
    153  NH2       16.2600   37.1090    9.0360 N.pl3 134  ARG134      0.1354
    154  N         16.3920   43.8440   11.7880 N.3   140  ARG140     -0.1245
    155  CA        16.3580   42.7990   12.8170 C.3   140  ARG140      0.1563
    156  C         17.7510   42.8000   13.4130 C.2   140  ARG140      0.2260
    157  O         18.7410   42.8540   12.6760 O.2   140  ARG140     -0.2867
    158  CB        16.0980   41.4320   12.1900 C.3   140  ARG140      0.0307
    159  CG        14.9790   40.6760   12.8230 C.3   140  ARG140      0.0489
    160  CD        14.6970   39.4120   12.0490 C.3   140  ARG140      0.2205
    161  NE        15.6670   38.3560   12.3250 N.pl3 140  ARG140     -0.0865
    162  CZ        15.4400   37.0670   12.0930 C.cat 140  ARG140      0.5346
    163  NH1       14.2770   36.6940   11.5800 N.pl3 140  ARG140      0.1354
    164  NH2       16.3750   36.1550   12.3380 N.pl3 140  ARG140      0.1354
    165  N         19.8070   40.4830   14.6620 N.3   142  ASP142     -0.1239
    166  CA        20.7240   39.4620   14.1710 C.3   142  ASP142      0.1674
    167  C         21.0060   39.4640   12.6660 C.2   142  ASP142      0.2266
    168  O         21.7530   38.6220   12.1730 O.2   142  ASP142     -0.2867
    169  CB        20.2690   38.0670   14.6210 C.3   142  ASP142      0.1410
    170  CG        18.8710   37.6940   14.1090 C.2   142  ASP142      0.3668
    171  OD1       18.0650   38.5880   13.8000 O.co2 142  ASP142     -0.2456
    172  OD2       18.5670   36.4960   14.0390 O.co2 142  ASP142     -0.2456
    173  N         24.9690   32.2070   12.3810 N.3   151  ARG151     -0.1245
    174  CA        23.7210   31.5280   12.0160 C.3   151  ARG151      0.1563
    175  C         23.9640   30.4890   10.9130 C.2   151  ARG151      0.2260
    176  O         23.4400   29.3760   10.9900 O.2   151  ARG151     -0.2867
    177  CB        22.6650   32.5550   11.5990 C.3   151  ARG151      0.0307
    178  CG        22.2290   33.4330   12.7720 C.3   151  ARG151      0.0489
    179  CD        21.6900   34.7390   12.2900 C.3   151  ARG151      0.2205
    180  NE        20.4190   34.5620   11.6100 N.pl3 151  ARG151     -0.0865
    181  CZ        19.7990   35.5250   10.9450 C.cat 151  ARG151      0.5346
    182  NH1       20.3480   36.7260   10.8520 N.pl3 151  ARG151      0.1354
    183  NH2       18.5860   35.3130   10.4620 N.pl3 151  ARG151      0.1354
@<TRIPOS>BOND
     1   143   144    1
     2     8     9    1
     3     9    10    1
     4     9    12    1
     5   144   147    1
     6   144   145    1
     7    11    10    2
     8     4     3    2
     9   147   148    1
    10    13    12    1
    11    13    14    1
    12   145   146    2
    13     3     2    1
    14   148   149    1
    15   149   150    1
    16    14    15    1
    17     1     2    1
    18     1     7    1
    19    16    15    1
    20   152   151    1
    21     2     5    1
    22   150   151    2
    23   151   153    1
    24     7     6    1
    25     6     5    1
    26   107   105   ar
    27   104   105    1
    28   104   101    1
    29   105   106   ar
    30   101   100    1
    31   101   102    1
    32   183   181    1
    33   182   181    1
    34   175   176    2
    35   175   174    1
    36   181   180    2
    37   133   131    1
    38   108   102   am
    39   108   109    1
    40   102   103    2
    41   163   162    1
    42   177   174    1
    43   177   178    1
    44   180   179    1
    45   154   155    1
    46   109   110    1
    47   174   173    1
    48   160   161    1
    49   160   159    1
    50   162   161    2
    51   162   164    1
    52   168   167    2
    53   158   155    1
    54   158   159    1
    55   131   130    2
    56   131   132    1
    57   179   178    1
    58   130   129    1
    59   115   114    2
    60   167   166    1
    61   157   156    2
    62   155   156    1
    63    21    22    1
    64    21    18    1
    65   112   110   am
    66   112   113    1
    67   110   111    2
    68   114   113    1
    69   128   129    1
    70   128   127    1
    71    18    17    1
    72    18    19    1
    73   171   170   ar
    74    50    48    1
    75   113   116    1
    76   172   170   ar
    77   170   169    1
    78   166   169    1
    79   166   165    1
    80   124   127    1
    81   124   123    1
    82   124   125    1
    83   126   125    2
    84    19    23   am
    85    19    20    2
    86    48    49    1
    87    48    47    2
    88    23    24    1
    89   116   117    1
    90    28    29    1
    91    28    25   am
    92    47    46    1
    93    29    30    1
    94   118   117   ar
    95   118   120   ar
    96    27    24    1
    97    24    25    1
    98   117   119   ar
    99    68    67    2
   100    66    67    1
   101    66    65    1
   102    30    31    2
   103    25    26    2
   104    85    83    1
   105    46    45    1
   106    67    69   am
   107   120   122   ar
   108    60    59    2
   109   141   140    2
   110   119   121   ar
   111    83    82    1
   112    63    61    1
   113    45    44    1
   114    69    70    1
   115   122   121   ar
   116    59    58    1
   117   140   139    1
   118   140   142   am
   119    44    41    1
   120   139   138    1
   121   136   137    2
   122   136   135    1
   123    58    61    1
   124    58    57    1
   125    70    71    1
   126    70    73    1
   127    61    62    1
   128    82    84    1
   129    82    79    1
   130    72    71    2
   131    71    78   am
   132    62    64    1
   133    78    79    1
   134    79    80    1
   135    38    37    1
   136    54    53    2
   137   138   135    1
   138    40    41    1
   139    40    34   am
   140    32    33    1
   141   135   134    1
   142    41    42    1
   143    36    37    1
   144    36    33    1
   145    57    53   am
   146    99    97    1
   147    37    39    1
   148    73    74    1
   149    53    52    1
   150    74    75    1
   151    33    34    1
   152    80    86   am
   153    80    81    2
   154    42    43    2
   155    34    35    2
   156    86    87    1
   157    97    98    1
   158    97    94    1
   159    52    55    1
   160    52    51    1
   161    92    90    1
   162    75    76    2
   163    75    77   am
   164    96    95    2
   165    89    88    2
   166    55    56    1
   167    90    87    1
   168    90    91    1
   169    87    88    1
   170    95    94    1
   171    94    93    1
