@<TRIPOS>MOLECULE
tmp/1ulbA00.pdb
 102 98 0 0 0
SMALL
GASTEIGER

@<TRIPOS>ATOM
      1  N          9.2210   20.1430   25.3510 N.3   116  ALA116     -0.1231
      2  CA         8.2720   20.7780   26.2880 C.3   116  ALA116      0.1694
      3  C          7.2520   19.7320   26.7370 C.2   116  ALA116      0.2592
      4  O          6.3610   19.3440   25.9640 O.2   116  ALA116     -0.2718
      5  CB         7.5590   21.9420   25.5960 C.3   116  ALA116      0.0304
      6  N          7.4080   19.3090   27.9860 N.am  117  ALA117     -0.1966
      7  CA         6.5920   18.2170   28.5510 C.3   117  ALA117      0.1728
      8  C          5.6600   18.6420   29.7010 C.2   117  ALA117      0.2616
      9  O          5.7990   19.7440   30.2620 O.2   117  ALA117     -0.2715
     10  CB         7.4910   17.1150   29.0940 C.3   117  ALA117      0.0334
     11  N          4.7960   17.6620   29.9520 N.am  118  GLY118     -0.1955
     12  CA         3.6660   17.6700   30.9060 C.3   118  GLY118      0.1869
     13  C          4.0000   18.1670   32.3180 C.2   118  GLY118      0.2309
     14  O          3.9850   19.3750   32.5820 O.2   118  GLY118     -0.2863
     15  N          3.6090    9.3920   25.2880 N.3   195  VAL195     -0.1245
     16  CA         2.2340    9.1320   24.8860 C.3   195  VAL195      0.1561
     17  C          2.2540    9.6020   23.4400 C.2   195  VAL195      0.2260
     18  O          2.9050   10.5940   23.1330 O.2   195  VAL195     -0.2867
     19  CB         1.3350    9.9690   25.8020 C.3   195  VAL195      0.0252
     20  CG1       -0.0370   10.2560   25.2070 C.3   195  VAL195      0.0019
     21  CG2        1.0900    9.3280   27.1690 C.3   195  VAL195      0.0019
     22  N         -5.0400   15.5170   24.3120 N.3   200  PHE200     -0.1227
     23  CA        -4.4120   15.5560   25.6520 C.3   200  PHE200      0.1736
     24  C         -5.0270   14.4780   26.5900 C.2   200  PHE200      0.2595
     25  O         -5.9420   13.7350   26.1980 O.2   200  PHE200     -0.2718
     26  CB        -4.4770   16.9860   26.2040 C.3   200  PHE200      0.0547
     27  CG        -3.3330   17.9160   25.7200 C.ar  200  PHE200     -0.0202
     28  CD1       -3.0110   18.0280   24.3530 C.ar  200  PHE200     -0.0042
     29  CD2       -2.6010   18.6760   26.6480 C.ar  200  PHE200     -0.0042
     30  CE1       -1.9830   18.8850   23.9260 C.ar  200  PHE200     -0.0003
     31  CE2       -1.5720   19.5320   26.2190 C.ar  200  PHE200     -0.0003
     32  CZ        -1.2650   19.6360   24.8590 C.ar  200  PHE200     -0.0000
     33  N         -4.4940   14.4560   27.8200 N.am  201  GLU201     -0.1979
     34  CA        -4.7220   13.3630   28.8110 C.3   201  GLU201      0.1602
     35  C         -5.8810   13.5210   29.8220 C.2   201  GLU201      0.2287
     36  O         -5.9260   14.4520   30.6410 O.2   201  GLU201     -0.2864
     37  CB        -3.4580   13.1700   29.6490 C.3   201  GLU201      0.0415
     38  CG        -2.4170   12.2940   28.9400 C.3   201  GLU201      0.1163
     39  CD        -1.3010   13.0960   28.2580 C.2   201  GLU201      0.3649
     40  OE1       -1.0660   14.3130   28.6150 O.co2 201  GLU201     -0.2457
     41  OE2       -0.5900   12.5530   27.3260 O.co2 201  GLU201     -0.2457
     42  N          4.8310   13.7480   31.1850 N.3   217  VAL217     -0.1231
     43  CA         4.2920   13.1000   29.9760 C.3   217  VAL217      0.1692
     44  C          4.5950   13.9770   28.7450 C.2   217  VAL217      0.2593
     45  O          4.8720   15.1750   28.8720 O.2   217  VAL217     -0.2718
     46  CB         2.7940   12.8920   30.2120 C.3   217  VAL217      0.0266
     47  CG1        2.0540   14.1970   30.5170 C.3   217  VAL217      0.0020
     48  CG2        2.0700   12.2550   29.0350 C.3   217  VAL217      0.0020
     49  N          4.5470   13.3610   27.5650 N.am  218  GLY218     -0.1942
     50  CA         4.8480   14.0660   26.2950 C.3   218  GLY218      0.2014
     51  C          4.6550   13.1360   25.0880 C.2   218  GLY218      0.2638
     52  O          4.4060   11.9310   25.2500 O.2   218  GLY218     -0.2714
     53  N          4.8000   13.7460   23.9160 N.am  219  MET219     -0.1976
     54  CA         4.5950   13.0750   22.6200 C.3   219  MET219      0.1605
     55  C          5.8360   13.1020   21.7230 C.2   219  MET219      0.2287
     56  O          5.7490   13.3170   20.5060 O.2   219  MET219     -0.2864
     57  CB         3.4930   13.7840   21.8460 C.3   219  MET219      0.0413
     58  CG         2.7150   14.7560   22.7190 C.3   219  MET219      0.0598
     59  SD         1.1930   15.2680   21.9710 S.3   219  MET219     -0.1393
     60  CE        -0.0430   15.4650   23.2290 C.3   219  MET219      0.0692
     61  N          5.4240   22.2460   31.7140 N.3   242  THR242     -0.1203
     62  CA         4.4640   23.3460   31.5430 C.3   242  THR242      0.1994
     63  C          3.0060   23.0470   32.0510 C.2   242  THR242      0.2618
     64  O          2.0590   23.7380   31.6960 O.2   242  THR242     -0.2717
     65  CB         4.3310   23.8530   30.0820 C.3   242  THR242      0.1784
     66  OG1        3.0140   23.6330   29.5950 O.3   242  THR242     -0.2211
     67  CG2        5.2960   23.2130   29.0890 C.3   242  THR242      0.0376
     68  N          2.6760   22.0280   32.9130 N.am  243  ASN243     -0.1960
     69  CA         1.2210   21.9850   33.4050 C.3   243  ASN243      0.1819
     70  C          0.7330   20.7550   34.2830 C.2   243  ASN243      0.2621
     71  O          1.2810   20.4990   35.3790 O.2   243  ASN243     -0.2715
     72  CB         0.2210   22.0750   32.2210 C.3   243  ASN243      0.1195
     73  CG         0.5780   21.2840   30.9410 C.2   243  ASN243      0.2630
     74  OD1        1.4250   21.7160   30.1550 O.2   243  ASN243     -0.2716
     75  ND2       -0.0570   20.1560   30.6620 N.am  243  ASN243     -0.0877
     76  N         -0.3750   20.1650   33.7460 N.am  244  LYS244     -0.1977
     77  CA        -1.1350   18.8980   34.1520 C.3   244  LYS244      0.1596
     78  C         -2.2140   18.9690   35.2740 C.2   244  LYS244      0.2287
     79  O         -2.0980   19.7330   36.2380 O.2   244  LYS244     -0.2864
     80  CB        -0.2520   17.7720   34.6480 C.3   244  LYS244      0.0298
     81  CG        -1.0400   16.4570   34.7470 C.3   244  LYS244      0.0038
     82  CD        -1.7060   16.0860   33.4220 C.3   244  LYS244      0.0206
     83  CE        -0.7340   16.1820   32.2510 C.3   244  LYS244      0.1093
     84  NZ        -1.3580   15.8720   30.9630 N.3   244  LYS244     -0.1314
     85  N         -4.1280   23.6070   27.2420 N.3   256  ASN256     -0.1225
     86  CA        -4.0770   23.8370   25.7960 C.3   256  ASN256      0.1785
     87  C         -2.6380   23.7160   25.3030 C.2   256  ASN256      0.2597
     88  O         -1.7370   23.3260   26.0650 O.2   256  ASN256     -0.2718
     89  CB        -4.5730   25.2510   25.4730 C.3   256  ASN256      0.1169
     90  CG        -5.9870   25.5220   25.9840 C.2   256  ASN256      0.2627
     91  OD1       -6.8700   25.8530   25.1960 O.2   256  ASN256     -0.2716
     92  ND2       -6.2600   25.3990   27.2690 N.am  256  ASN256     -0.0877
     93  N         -2.4960   24.0460   24.0360 N.am  257  HIS257     -0.1975
     94  CA        -1.2000   24.0980   23.3530 C.3   257  HIS257      0.1656
     95  C         -0.9660   25.5410   22.9480 C.2   257  HIS257      0.2291
     96  O          0.0550   25.8810   22.3360 O.2   257  HIS257     -0.2864
     97  CB        -1.1800   23.1790   22.1330 C.3   257  HIS257      0.0771
     98  CG         0.0440   23.4020   21.2310 C.ar  257  HIS257      0.0820
     99  ND1        1.2820   22.8070   21.4860 N.ar  257  HIS257     -0.2267
    100  CD2        0.2110   24.1390   20.1010 C.ar  257  HIS257      0.1154
    101  CE1        2.1250   23.1840   20.5370 C.ar  257  HIS257      0.1986
    102  NE2        1.5010   23.9780   19.7040 N.ar  257  HIS257     -0.2212
@<TRIPOS>BOND
     1   102   100   ar
     2   102   101   ar
     3   100    98   ar
     4    56    55    2
     5   101    99   ar
     6    98    99   ar
     7    98    97    1
     8    55    54    1
     9    57    54    1
    10    57    58    1
    11    59    58    1
    12    59    60    1
    13    97    94    1
    14    96    95    2
    15    54    53    1
    16    95    94    1
    17    18    17    2
    18    94    93    1
    19    17    16    1
    20    53    51   am
    21    30    28   ar
    22    30    32   ar
    23    93    87   am
    24    22    23    1
    25    28    27   ar
    26    32    31   ar
    27    16    15    1
    28    16    19    1
    29    51    52    2
    30    51    50    1
    31    91    90    2
    32    20    19    1
    33    87    86    1
    34    87    88    2
    35     1     2    1
    36    89    86    1
    37    89    90    1
    38     5     2    1
    39    23    26    1
    40    23    24    1
    41    27    26    1
    42    27    29   ar
    43    86    85    1
    44    19    21    1
    45     4     3    2
    46    90    92   am
    47    25    24    2
    48    31    29   ar
    49     2     3    1
    50    50    49    1
    51    24    33   am
    52     3     6   am
    53    41    39   ar
    54    49    44   am
    55    33    34    1
    56     6     7    1
    57    39    40   ar
    58    39    38    1
    59     7    10    1
    60     7     8    1
    61    44    45    2
    62    44    43    1
    63    34    37    1
    64    34    35    1
    65    38    37    1
    66    48    46    1
    67    67    65    1
    68    66    65    1
    69     8    11   am
    70     8     9    2
    71    35    36    2
    72    11    12    1
    73    43    46    1
    74    43    42    1
    75    65    62    1
    76    74    73    2
    77    46    47    1
    78    75    73   am
    79    12    13    1
    80    73    72    1
    81    84    83    1
    82    62    61    1
    83    62    63    1
    84    64    63    2
    85    63    68   am
    86    72    69    1
    87    83    82    1
    88    13    14    2
    89    68    69    1
    90    69    70    1
    91    82    81    1
    92    76    77    1
    93    76    70   am
    94    77    80    1
    95    77    78    1
    96    70    71    2
    97    80    81    1
    98    78    79    2
