@<TRIPOS>MOLECULE
tmp/1uleA00.pdb
 118 108 0 0 0
SMALL
GASTEIGER

@<TRIPOS>ATOM
      1  N         35.0050    9.5820   41.4330 N.3    36  THR36      -0.1218
      2  CA        36.1760    9.5830   40.5710 C.3    36  THR36       0.1862
      3  C         37.2250   10.5550   41.1050 C.2    36  THR36       0.2287
      4  O         36.9260   11.7070   41.4190 O.2    36  THR36      -0.2866
      5  CB        35.7790    9.9500   39.1250 C.3    36  THR36       0.1770
      6  OG1       34.9870    8.8880   38.5770 O.3    36  THR36      -0.2211
      7  CG2       37.0070   10.1570   38.2510 C.3    36  THR36       0.0375
      8  N         41.1520   12.0720   40.3850 N.3    38  VAL38      -0.1245
      9  CA        42.1810   12.2500   39.3710 C.3    38  VAL38       0.1561
     10  C         43.4930   12.8680   39.8630 C.2    38  VAL38       0.2260
     11  O         43.4930   13.7440   40.7210 O.2    38  VAL38      -0.2867
     12  CB        41.6330   13.1470   38.2240 C.3    38  VAL38       0.0252
     13  CG1       42.7470   13.5260   37.2660 C.3    38  VAL38       0.0019
     14  CG2       40.5150   12.4240   37.4810 C.3    38  VAL38       0.0019
     15  N         47.7850   11.2240   33.0310 N.3    51  HIS51      -0.1241
     16  CA        46.4720   11.4060   33.6310 C.3    51  HIS51       0.1621
     17  C         46.0610   10.0660   34.2430 C.2    51  HIS51       0.2264
     18  O         46.0490    9.0410   33.5580 O.2    51  HIS51      -0.2867
     19  CB        45.4860   11.8250   32.5290 C.3    51  HIS51       0.0745
     20  CG        44.0520   11.8580   32.9590 C.ar   51  HIS51       0.0817
     21  ND1       43.5460   12.8240   33.8040 N.ar   51  HIS51      -0.2268
     22  CD2       43.0010   11.0770   32.6070 C.ar   51  HIS51       0.1154
     23  CE1       42.2460   12.6380   33.9490 C.ar   51  HIS51       0.1986
     24  NE2       41.8900   11.5850   33.2330 N.ar   51  HIS51      -0.2212
     25  N         42.9360    8.5030   36.1380 N.3    53  SER53      -0.1217
     26  CA        41.5370    8.6570   36.5280 C.3    53  SER53       0.1889
     27  C         41.0340    7.4190   37.2630 C.2    53  SER53       0.2288
     28  O         40.7620    6.3930   36.6470 O.2    53  SER53      -0.2866
     29  CB        40.6750    8.9020   35.2820 C.3    53  SER53       0.2089
     30  OG        39.3360    9.2010   35.6390 O.3    53  SER53      -0.2183
     31  N         38.2360    5.5330   38.9420 N.3    55  ARG55      -0.1245
     32  CA        36.7730    5.5140   38.9510 C.3    55  ARG55       0.1563
     33  C         36.2030    4.2820   39.6500 C.2    55  ARG55       0.2260
     34  O         36.0640    3.2220   39.0420 O.2    55  ARG55      -0.2867
     35  CB        36.2610    5.5650   37.5090 C.3    55  ARG55       0.0307
     36  CG        36.9540    6.6120   36.6520 C.3    55  ARG55       0.0489
     37  CD        36.5200    6.5320   35.1970 C.3    55  ARG55       0.2205
     38  NE        37.3410    7.3880   34.3420 N.pl3  55  ARG55      -0.0865
     39  CZ        37.2330    7.4450   33.0170 C.cat  55  ARG55       0.5346
     40  NH1       36.3340    6.6970   32.3920 N.pl3  55  ARG55       0.1354
     41  NH2       38.0300    8.2430   32.3160 N.pl3  55  ARG55       0.1354
     42  N         32.8390    2.8860   38.0850 N.3    58  GLU58      -0.1245
     43  CA        32.9660    2.2030   36.8030 C.3    58  GLU58       0.1567
     44  C         33.9370    1.0340   36.9760 C.2    58  GLU58       0.2260
     45  O         34.2420    0.3130   36.0250 O.2    58  GLU58      -0.2867
     46  CB        33.5030    3.1960   35.7640 C.3    58  GLU58       0.0388
     47  CG        33.3270    2.8000   34.3050 C.3    58  GLU58       0.1160
     48  CD        33.9160    3.8390   33.3450 C.2    58  GLU58       0.3649
     49  OE1       33.7980    5.0520   33.6330 O.co2  58  GLU58      -0.2457
     50  OE2       34.4840    3.4450   32.3020 O.co2  58  GLU58      -0.2457
     51  N         41.7590    4.7400   34.7050 N.3    62  VAL62      -0.1245
     52  CA        42.1410    5.0820   33.3440 C.3    62  VAL62       0.1561
     53  C         43.3890    5.9540   33.2400 C.2    62  VAL62       0.2260
     54  O         43.5630    6.9030   34.0040 O.2    62  VAL62      -0.2867
     55  CB        40.9630    5.7840   32.6320 C.3    62  VAL62       0.0252
     56  CG1       41.3080    6.0500   31.1720 C.3    62  VAL62       0.0019
     57  CG2       39.7070    4.9150   32.7410 C.3    62  VAL62       0.0019
     58  N         45.8690    8.2140   30.5040 N.3    64  ASN64      -0.1240
     59  CA        45.8540    8.8960   29.2100 C.3    64  ASN64       0.1653
     60  C         46.7590   10.1340   29.2760 C.2    64  ASN64       0.2266
     61  O         47.4040   10.3900   30.2960 O.2    64  ASN64      -0.2867
     62  CB        44.4220    9.3370   28.8730 C.3    64  ASN64       0.1155
     63  CG        44.1420    9.3530   27.3730 C.2    64  ASN64       0.2627
     64  OD1       45.0400    9.5660   26.5580 O.2    64  ASN64      -0.2716
     65  ND2       42.8840    9.1390   27.0100 N.am   64  ASN64      -0.0877
     66  N         47.2460   14.3360   27.1500 N.3    66  ARG66      -0.1245
     67  CA        46.6770   15.3040   26.2200 C.3    66  ARG66       0.1563
     68  C         47.3680   16.6520   26.3500 C.2    66  ARG66       0.2260
     69  O         47.7930   17.0390   27.4380 O.2    66  ARG66      -0.2867
     70  CB        45.1600   15.4640   26.4200 C.3    66  ARG66       0.0307
     71  CG        44.7300   16.4700   27.4660 C.3    66  ARG66       0.0489
     72  CD        43.2200   16.7280   27.3900 C.3    66  ARG66       0.2205
     73  NE        42.7430   17.5550   28.4990 N.pl3  66  ARG66      -0.0865
     74  CZ        42.8650   18.8770   28.5640 C.cat  66  ARG66       0.5346
     75  NH1       43.4430   19.5420   27.5800 N.pl3  66  ARG66       0.1354
     76  NH2       42.4200   19.5360   29.6240 N.pl3  66  ARG66       0.1354
     77  N         42.0520   14.1530   24.2280 N.3    72  TRP72      -0.1241
     78  CA        42.5430   12.9550   24.8950 C.3    72  TRP72       0.1605
     79  C         43.0000   11.9670   23.8330 C.2    72  TRP72       0.2264
     80  O         42.4860   11.9730   22.7210 O.2    72  TRP72      -0.2867
     81  CB        41.4280   12.3050   25.7320 C.3    72  TRP72       0.0550
     82  CG        41.0610   13.0730   26.9680 C.ar   72  TRP72       0.0003
     83  CD1       39.8790   13.7130   27.2170 C.ar   72  TRP72       0.0946
     84  CD2       41.9030   13.3230   28.1030 C.ar   72  TRP72       0.0152
     85  NE1       39.9370   14.3530   28.4350 N.ar   72  TRP72      -0.2442
     86  CE2       41.1680   14.1300   28.9990 C.ar   72  TRP72       0.0810
     87  CE3       43.2090   12.9460   28.4460 C.ar   72  TRP72       0.0012
     88  CZ2       41.6940   14.5710   30.2200 C.ar   72  TRP72       0.0191
     89  CZ3       43.7360   13.3820   29.6590 C.ar   72  TRP72       0.0001
     90  CH2       42.9770   14.1890   30.5310 C.ar   72  TRP72       0.0015
     91  N         42.7460    5.4110   25.4470 N.3    75  GLU75      -0.1245
     92  CA        42.8400    5.0510   26.8560 C.3    75  GLU75       0.1567
     93  C         43.5310    3.7230   27.1220 C.2    75  GLU75       0.2260
     94  O         43.5270    2.8180   26.2880 O.2    75  GLU75      -0.2867
     95  CB        41.4460    4.9990   27.4940 C.3    75  GLU75       0.0388
     96  CG        40.6320    6.2760   27.3770 C.3    75  GLU75       0.1160
     97  CD        39.3130    6.2000   28.1320 C.2    75  GLU75       0.3649
     98  OE1       38.7080    5.1060   28.1620 O.co2  75  GLU75      -0.2457
     99  OE2       38.8720    7.2350   28.6850 O.co2  75  GLU75      -0.2457
    100  N         43.4950    1.0160   30.2460 N.3    77  ARG77      -0.1245
    101  CA        42.7420    0.6980   31.4540 C.3    77  ARG77       0.1563
    102  C         43.1620   -0.5290   32.2510 C.2    77  ARG77       0.2260
    103  O         43.8410   -1.4180   31.7460 O.2    77  ARG77      -0.2867
    104  CB        41.2680    0.5310   31.0900 C.3    77  ARG77       0.0307
    105  CG        40.6340    1.7300   30.4180 C.3    77  ARG77       0.0489
    106  CD        39.2490    1.3760   29.8790 C.3    77  ARG77       0.2205
    107  NE        38.5000    2.5680   29.5050 N.pl3  77  ARG77      -0.0865
    108  CZ        37.3550    2.9360   30.0690 C.cat  77  ARG77       0.5346
    109  NH1       36.8180    2.1990   31.0320 N.pl3  77  ARG77       0.1354
    110  NH2       36.7520    4.0490   29.6810 N.pl3  77  ARG77       0.1354
    111  N         42.4640   16.2940   41.4550 N.3   126  ASN126     -0.1240
    112  CA        41.0870   16.7780   41.3040 C.3   126  ASN126      0.1653
    113  C         40.0220   15.7630   41.7050 C.2   126  ASN126      0.2266
    114  O         40.1650   14.5700   41.4390 O.2   126  ASN126     -0.2867
    115  CB        40.8300   17.1990   39.8530 C.3   126  ASN126      0.1155
    116  CG        41.8300   18.2170   39.3610 C.2   126  ASN126      0.2627
    117  OD1       41.9920   19.2810   39.9590 O.2   126  ASN126     -0.2716
    118  ND2       42.5110   17.8970   38.2650 N.am  126  ASN126     -0.0877
@<TRIPOS>BOND
     1    80    79    2
     2    79    78    1
     3    77    78    1
     4    78    81    1
     5    91    92    1
     6    81    82    1
     7    67    68    1
     8    67    70    1
     9    67    66    1
    10    94    93    2
    11    68    69    2
    12    70    71    1
    13    64    63    2
    14    92    93    1
    15    92    95    1
    16    82    83   ar
    17    82    84   ar
    18    65    63   am
    19    83    85   ar
    20    63    62    1
    21    96    95    1
    22    96    97    1
    23    72    71    1
    24    72    73    1
    25    75    74    1
    26    84    87   ar
    27    84    86   ar
    28    97    98   ar
    29    97    99   ar
    30    85    86   ar
    31    87    89   ar
    32    73    74    2
    33    74    76    1
    34    62    59    1
    35    86    88   ar
    36    59    60    1
    37    59    58    1
    38    60    61    2
    39   107   106    1
    40   107   108    2
    41    89    90   ar
    42   110   108    1
    43   106   105    1
    44   108   109    1
    45    88    90   ar
    46   100   101    1
    47   105   104    1
    48   104   101    1
    49    56    55    1
    50   101   102    1
    51   103   102    2
    52    50    48   ar
    53    41    39    1
    54    40    39    1
    55    19    20    1
    56    19    16    1
    57    22    20   ar
    58    22    24   ar
    59    55    57    1
    60    55    52    1
    61    20    21   ar
    62    39    38    2
    63    15    16    1
    64    24    23   ar
    65    53    52    1
    66    53    54    2
    67    52    51    1
    68    48    49   ar
    69    48    47    1
    70    18    17    2
    71    16    17    1
    72    21    23   ar
    73    47    46    1
    74    38    37    1
    75    37    36    1
    76    29    30    1
    77    29    26    1
    78    46    43    1
    79    45    44    2
    80    25    26    1
    81    26    27    1
    82    28    27    2
    83    36    35    1
    84    43    44    1
    85    43    42    1
    86    13    12    1
    87    14    12    1
    88    35    32    1
    89    12     9    1
    90     7     5    1
    91   118   116   am
    92     6     5    1
    93    31    32    1
    94    32    33    1
    95    34    33    2
    96     5     2    1
    97   116   115    1
    98   116   117    2
    99     9    10    1
   100     9     8    1
   101   115   112    1
   102    10    11    2
   103     2     3    1
   104     2     1    1
   105     3     4    2
   106   112   111    1
   107   112   113    1
   108   114   113    2
