@<TRIPOS>MOLECULE
tmp/1ulfA00.pdb
 131 120 0 0 0
SMALL
GASTEIGER

@<TRIPOS>ATOM
      1  N         55.2080   10.1600   15.0580 N.3    36  THR36      -0.1218
      2  CA        54.4040    9.0890   14.4940 C.3    36  THR36       0.1862
      3  C         54.3220    7.9190   15.4780 C.2    36  THR36       0.2287
      4  O         55.3330    7.4800   16.0310 O.2    36  THR36      -0.2866
      5  CB        54.9950    8.6530   13.1400 C.3    36  THR36       0.1770
      6  OG1       54.7970    9.7130   12.1920 O.3    36  THR36      -0.2211
      7  CG2       54.3330    7.3810   12.6270 C.3    36  THR36       0.0375
      8  N         52.5700    4.0050   16.0520 N.3    38  VAL38      -0.1245
      9  CA        51.9520    2.8630   15.4000 C.3    38  VAL38       0.1561
     10  C         51.4530    1.7340   16.2890 C.2    38  VAL38       0.2260
     11  O         52.0440    1.4330   17.3230 O.2    38  VAL38      -0.2867
     12  CB        52.9430    2.2480   14.3700 C.3    38  VAL38       0.0252
     13  CG1       52.4580    0.8780   13.9100 C.3    38  VAL38       0.0019
     14  CG2       53.1000    3.1840   13.1800 C.3    38  VAL38       0.0019
     15  N         49.9720   -2.2880   15.6020 N.3    40  ASN40      -0.1240
     16  CA        49.7490   -3.3420   14.6150 C.3    40  ASN40       0.1653
     17  C         49.1010   -4.5560   15.2450 C.2    40  ASN40       0.2266
     18  O         49.4050   -4.9010   16.3850 O.2    40  ASN40      -0.2867
     19  CB        51.0630   -3.8220   13.9900 C.3    40  ASN40       0.1155
     20  CG        51.7280   -2.7730   13.1510 C.2    40  ASN40       0.2627
     21  OD1       51.0630   -1.9610   12.5130 O.2    40  ASN40      -0.2716
     22  ND2       53.0540   -2.7930   13.1240 N.am   40  ASN40      -0.0877
     23  N         47.3410   -2.2010   10.3890 N.3    51  HIS51      -0.1241
     24  CA        48.4060   -1.2650   10.6860 C.3    51  HIS51       0.1621
     25  C         47.7750    0.1050   10.8840 C.2    51  HIS51       0.2264
     26  O         47.0890    0.6170    9.9950 O.2    51  HIS51      -0.2867
     27  CB        49.3880   -1.2340    9.5090 C.3    51  HIS51       0.0745
     28  CG        50.4690   -0.2080    9.6360 C.ar   51  HIS51       0.0817
     29  ND1       51.4640   -0.2840   10.5880 N.ar   51  HIS51      -0.2268
     30  CD2       50.7360    0.8980    8.9010 C.ar   51  HIS51       0.1154
     31  CE1       52.2990    0.7290   10.4310 C.ar   51  HIS51       0.1986
     32  NE2       51.8800    1.4610    9.4130 N.ar   51  HIS51      -0.2212
     33  N         48.8620    3.8620   11.6840 N.3    53  SER53      -0.1217
     34  CA        49.9770    4.7950   11.7930 C.3    53  SER53       0.1889
     35  C         49.4930    6.2290   12.0240 C.2    53  SER53       0.2288
     36  O         49.0430    6.8970   11.0960 O.2    53  SER53      -0.2866
     37  CB        50.8380    4.7190   10.5220 C.3    53  SER53       0.2089
     38  OG        51.9020    5.6530   10.5560 O.3    53  SER53      -0.2183
     39  N         50.1550    9.9150   12.4790 N.3    55  ARG55      -0.1245
     40  CA        51.2050   10.8630   12.1330 C.3    55  ARG55       0.1563
     41  C         50.8000   12.3180   12.3780 C.2    55  ARG55       0.2260
     42  O         50.3000   12.9970   11.4800 O.2    55  ARG55      -0.2867
     43  CB        51.5880   10.6590   10.6640 C.3    55  ARG55       0.0307
     44  CG        51.7990    9.1940   10.2960 C.3    55  ARG55       0.0489
     45  CD        52.1450    9.0130    8.8230 C.3    55  ARG55       0.2205
     46  NE        52.3180    7.6060    8.4570 N.pl3  55  ARG55      -0.0865
     47  CZ        52.6030    7.1890    7.2280 C.cat  55  ARG55       0.5346
     48  NH1       52.7490    8.0750    6.2520 N.pl3  55  ARG55       0.1354
     49  NH2       52.7330    5.8920    6.9650 N.pl3  55  ARG55       0.1354
     50  N         52.1230   14.9170    9.8840 N.3    58  GLU58      -0.1245
     51  CA        51.4640   14.8910    8.5750 C.3    58  GLU58       0.1567
     52  C         49.9660   15.1620    8.7290 C.2    58  GLU58       0.2260
     53  O         49.2320   15.2080    7.7400 O.2    58  GLU58      -0.2867
     54  CB        51.6290   13.5100    7.9230 C.3    58  GLU58       0.0388
     55  CG        52.7230   13.3840    6.8660 C.3    58  GLU58       0.1160
     56  CD        52.6600   12.0440    6.1260 C.2    58  GLU58       0.3649
     57  OE1       53.1350   11.0290    6.6760 O.co2  58  GLU58      -0.2457
     58  OE2       52.1150   12.0020    4.9950 O.co2  58  GLU58      -0.2457
     59  N         47.1570    6.7740    9.0670 N.3    62  VAL62      -0.1245
     60  CA        47.2170    5.8410    7.9460 C.3    62  VAL62       0.1561
     61  C         46.8810    4.4070    8.3300 C.2    62  VAL62       0.2260
     62  O         47.3130    3.9190    9.3770 O.2    62  VAL62      -0.2867
     63  CB        48.6320    5.8560    7.3060 C.3    62  VAL62       0.0252
     64  CG1       48.6910    4.9010    6.1140 C.3    62  VAL62       0.0019
     65  CG2       48.9940    7.2760    6.8700 C.3    62  VAL62       0.0019
     66  N         46.7530    0.3100    6.8880 N.3    64  ASN64      -0.1240
     67  CA        47.2520   -0.5720    5.8410 C.3    64  ASN64       0.1653
     68  C         47.4070   -2.0020    6.3510 C.2    64  ASN64       0.2266
     69  O         47.1140   -2.2930    7.5110 O.2    64  ASN64      -0.2867
     70  CB        48.6000   -0.0600    5.3210 C.3    64  ASN64       0.1155
     71  CG        48.7780   -0.3010    3.8330 C.2    64  ASN64       0.2627
     72  OD1       48.3750   -1.3430    3.3160 O.2    64  ASN64      -0.2716
     73  ND2       49.3930    0.6590    3.1360 N.am   64  ASN64      -0.0877
     74  N         49.8760   -5.8840    5.4030 N.3    66  ARG66      -0.1245
     75  CA        50.9340   -6.5010    4.6160 C.3    66  ARG66       0.1563
     76  C         51.3570   -7.8280    5.2170 C.2    66  ARG66       0.2260
     77  O         51.1800   -8.0680    6.4150 O.2    66  ARG66      -0.2867
     78  CB        52.1490   -5.5680    4.4740 C.3    66  ARG66       0.0307
     79  CG        53.0450   -5.4380    5.6900 C.3    66  ARG66       0.0489
     80  CD        54.2240   -4.5350    5.3540 C.3    66  ARG66       0.2205
     81  NE        55.1310   -4.3500    6.4810 N.pl3  66  ARG66      -0.0865
     82  CZ        55.9330   -5.2950    6.9590 C.cat  66  ARG66       0.5346
     83  NH1       55.9470   -6.5020    6.4030 N.pl3  66  ARG66       0.1354
     84  NH2       56.7150   -5.0350    8.0000 N.pl3  66  ARG66       0.1354
     85  N         53.2140   -3.3390    1.1530 N.3    72  TRP72      -0.1241
     86  CA        52.0060   -2.6890    1.6360 C.3    72  TRP72       0.1605
     87  C         51.0210   -2.6170    0.4840 C.2    72  TRP72       0.2264
     88  O         51.4100   -2.7050   -0.6810 O.2    72  TRP72      -0.2867
     89  CB        52.2930   -1.2570    2.0930 C.3    72  TRP72       0.0550
     90  CG        53.1040   -1.1450    3.3380 C.ar   72  TRP72       0.0003
     91  CD1       54.3710   -0.6480    3.4480 C.ar   72  TRP72       0.0946
     92  CD2       52.6880   -1.4820    4.6660 C.ar   72  TRP72       0.0152
     93  NE1       54.7680   -0.6480    4.7630 N.ar   72  TRP72      -0.2442
     94  CE2       53.7550   -1.1550    5.5330 C.ar   72  TRP72       0.0810
     95  CE3       51.5150   -2.0270    5.2080 C.ar   72  TRP72       0.0012
     96  CZ2       53.6870   -1.3520    6.9190 C.ar   72  TRP72       0.0191
     97  CZ3       51.4430   -2.2260    6.5850 C.ar   72  TRP72       0.0001
     98  CH2       52.5270   -1.8880    7.4260 C.ar   72  TRP72       0.0015
     99  N         47.1260    2.6690    0.7600 N.3    75  GLU75      -0.1245
    100  CA        46.7450    3.1790    2.0700 C.3    75  GLU75       0.1567
    101  C         45.3270    3.7480    2.1280 C.2    75  GLU75       0.2260
    102  O         44.7340    4.1130    1.1080 O.2    75  GLU75      -0.2867
    103  CB        47.7170    4.2720    2.5260 C.3    75  GLU75       0.0388
    104  CG        49.1910    3.9200    2.4090 C.3    75  GLU75       0.1160
    105  CD        50.0890    5.0650    2.8470 C.2    75  GLU75       0.3649
    106  OE1       49.7310    6.2380    2.5970 O.co2  75  GLU75      -0.2457
    107  OE2       51.1570    4.7990    3.4340 O.co2  75  GLU75      -0.2457
    108  N         43.3910    6.6550    4.4520 N.3    77  ARG77      -0.1245
    109  CA        43.6890    7.7420    5.3750 C.3    77  ARG77       0.1563
    110  C         42.5060    8.5710    5.8570 C.2    77  ARG77       0.2260
    111  O         41.4260    8.5560    5.2680 O.2    77  ARG77      -0.2867
    112  CB        44.6840    8.7060    4.7200 C.3    77  ARG77       0.0307
    113  CG        45.9660    8.0770    4.2050 C.3    77  ARG77       0.0489
    114  CD        46.8540    9.1360    3.5670 C.3    77  ARG77       0.2205
    115  NE        48.2350    8.6820    3.4750 N.pl3  77  ARG77      -0.0865
    116  CZ        49.2970    9.4610    3.6600 C.cat  77  ARG77       0.5346
    117  NH1       49.1470   10.7520    3.9440 N.pl3  77  ARG77       0.1354
    118  NH2       50.5140    8.9390    3.5790 N.pl3  77  ARG77       0.1354
    119  N         54.5940    0.7160   18.2660 N.3   126  ASN126     -0.1225
    120  CA        55.8630    1.3280   17.8310 C.3   126  ASN126      0.1785
    121  C         55.9080    2.8540   17.8310 C.2   126  ASN126      0.2597
    122  O         54.9430    3.5100   17.4360 O.2   126  ASN126     -0.2718
    123  CB        56.2340    0.8570   16.4190 C.3   126  ASN126      0.1169
    124  CG        56.4500   -0.6300   16.3440 C.2   126  ASN126      0.2627
    125  OD1       57.1490   -1.2060   17.1760 O.2   126  ASN126     -0.2716
    126  ND2       55.8580   -1.2670   15.3390 N.am  126  ASN126     -0.0877
    127  N         57.0480    3.4060   18.2450 N.am  127  ALA127     -0.1979
    128  CA        57.2490    4.8570   18.2740 C.3   127  ALA127      0.1597
    129  C         58.6140    5.2450   18.8420 C.2   127  ALA127      0.2287
    130  O         59.0790    4.6480   19.8120 O.2   127  ALA127     -0.2864
    131  CB        56.1460    5.5310   19.0960 C.3   127  ALA127      0.0319
@<TRIPOS>BOND
     1    88    87    2
     2    87    86    1
     3    99   100    1
     4   102   101    2
     5    85    86    1
     6    86    89    1
     7   100   101    1
     8   100   103    1
     9    89    90    1
    10   104   103    1
    11   104   105    1
    12   106   105   ar
    13   105   107   ar
    14    73    71   am
    15    72    71    2
    16    90    91   ar
    17    90    92   ar
    18    91    93   ar
    19   115   114    1
    20   115   116    2
    21   114   113    1
    22   118   116    1
    23   116   117    1
    24    71    70    1
    25   113   112    1
    26   108   109    1
    27    78    75    1
    28    78    79    1
    29    75    76    1
    30    75    74    1
    31    92    95   ar
    32    92    94   ar
    33   112   109    1
    34    93    94   ar
    35    58    56   ar
    36    95    97   ar
    37    76    77    2
    38   111   110    2
    39    70    67    1
    40    80    79    1
    41    80    81    1
    42   109   110    1
    43    94    96   ar
    44    67    68    1
    45    67    66    1
    46    64    63    1
    47    56    57   ar
    48    56    55    1
    49    48    47    1
    50    68    69    2
    51    83    82    1
    52    81    82    2
    53    97    98   ar
    54    55    54    1
    55    65    63    1
    56    96    98   ar
    57    82    84    1
    58    49    47    1
    59    47    46    2
    60    63    60    1
    61    53    52    2
    62    54    51    1
    63    60    61    1
    64    60    59    1
    65    61    62    2
    66    46    45    1
    67    51    52    1
    68    51    50    1
    69    45    44    1
    70    30    32   ar
    71    30    28   ar
    72    32    31   ar
    73    27    28    1
    74    27    24    1
    75    28    29   ar
    76    26    25    2
    77    44    43    1
    78    23    24    1
    79    31    29   ar
    80    37    38    1
    81    37    34    1
    82    43    40    1
    83    24    25    1
    84    36    35    2
    85    42    41    2
    86    33    34    1
    87    34    35    1
    88    40    41    1
    89    40    39    1
    90     6     5    1
    91    21    20    2
    92     7     5    1
    93    22    20   am
    94     5     2    1
    95    20    19    1
    96    14    12    1
    97    13    12    1
    98    19    16    1
    99    12     9    1
   100     2     1    1
   101     2     3    1
   102    16    17    1
   103    16    15    1
   104    17    18    2
   105   126   124   am
   106     9     8    1
   107     9    10    1
   108     3     4    2
   109    10    11    2
   110   124   123    1
   111   124   125    2
   112   123   120    1
   113   122   121    2
   114   121   120    1
   115   121   127   am
   116   120   119    1
   117   127   128    1
   118   128   129    1
   119   128   131    1
   120   129   130    2
