@<TRIPOS>MOLECULE
tmp/1ulgA00.pdb
 99 91 0 0 0
SMALL
GASTEIGER

@<TRIPOS>ATOM
      1  N        -25.1280  -21.5750  -10.0350 N.3    36  THR36      -0.1218
      2  CA       -26.4820  -21.0360   -9.9730 C.3    36  THR36       0.1862
      3  C        -27.2250  -21.3830   -8.6860 C.2    36  THR36       0.2287
      4  O        -27.3400  -22.5520   -8.3140 O.2    36  THR36      -0.2866
      5  CB       -27.3030  -21.5030  -11.1870 C.3    36  THR36       0.1770
      6  OG1      -26.8120  -20.8440  -12.3640 O.3    36  THR36      -0.2211
      7  CG2      -28.7790  -21.1770  -11.0040 C.3    36  THR36       0.0375
      8  N        -30.8520  -20.4580   -6.4660 N.3    38  VAL38      -0.1245
      9  CA       -32.1990  -19.9180   -6.5550 C.3    38  VAL38       0.1561
     10  C        -32.9770  -19.8130   -5.2540 C.2    38  VAL38       0.2260
     11  O        -32.8780  -20.6630   -4.3730 O.2    38  VAL38      -0.2867
     12  CB       -33.0470  -20.7700   -7.5500 C.3    38  VAL38       0.0252
     13  CG1      -34.5220  -20.3980   -7.4640 C.3    38  VAL38       0.0019
     14  CG2      -32.5300  -20.5800   -8.9730 C.3    38  VAL38       0.0019
     15  N        -38.8920  -15.2350   -8.2120 N.3    51  HIS51      -0.1241
     16  CA       -37.8070  -16.1630   -8.4990 C.3    51  HIS51       0.1621
     17  C        -36.5030  -15.3900   -8.5880 C.2    51  HIS51       0.2264
     18  O        -36.3880  -14.4340   -9.3530 O.2    51  HIS51      -0.2867
     19  CB       -38.1010  -16.8850   -9.8260 C.3    51  HIS51       0.0745
     20  CG       -36.9500  -17.6730  -10.3760 C.ar   51  HIS51       0.0817
     21  ND1      -36.4480  -18.7990   -9.7590 N.ar   51  HIS51      -0.2268
     22  CD2      -36.2300  -17.5160  -11.5140 C.ar   51  HIS51       0.1154
     23  CE1      -35.4710  -19.3020  -10.4930 C.ar   51  HIS51       0.1986
     24  NE2      -35.3190  -18.5420  -11.5640 N.ar   51  HIS51      -0.2212
     25  N        -32.6420  -16.0330   -9.3970 N.3    53  SER53      -0.1217
     26  CA       -31.6200  -16.9280   -9.9250 C.3    53  SER53       0.1889
     27  C        -30.2400  -16.2860  -10.0130 C.2    53  SER53       0.2288
     28  O        -29.9300  -15.5640  -10.9630 O.2    53  SER53      -0.2866
     29  CB       -32.0270  -17.4360  -11.3100 C.3    53  SER53       0.2089
     30  OG       -31.0160  -18.2630  -11.8560 O.3    53  SER53      -0.2183
     31  N        -26.6260  -16.3600  -10.8950 N.3    55  ARG55      -0.1245
     32  CA       -25.7870  -17.1130  -11.8180 C.3    55  ARG55       0.1563
     33  C        -24.3630  -16.5810  -11.8920 C.2    55  ARG55       0.2260
     34  O        -24.0240  -15.8060  -12.7890 O.2    55  ARG55      -0.2867
     35  CB       -26.4130  -17.0960  -13.2110 C.3    55  ARG55       0.0307
     36  CG       -27.8920  -17.4140  -13.2030 C.3    55  ARG55       0.0489
     37  CD       -28.4850  -17.4590  -14.5980 C.3    55  ARG55       0.2205
     38  NE       -29.9230  -17.7070  -14.5360 N.pl3  55  ARG55      -0.0865
     39  CZ       -30.7140  -17.8260  -15.5960 C.cat  55  ARG55       0.5346
     40  NH1      -30.2140  -17.7200  -16.8200 N.pl3  55  ARG55       0.1354
     41  NH2      -32.0090  -18.0530  -15.4300 N.pl3  55  ARG55       0.1354
     42  N        -21.7940  -16.5680  -15.1400 N.3    58  GLU58      -0.1245
     43  CA       -22.5830  -15.9480  -16.1970 C.3    58  GLU58       0.1567
     44  C        -22.7690  -14.4720  -15.8360 C.2    58  GLU58       0.2260
     45  O        -23.4460  -13.7230  -16.5410 O.2    58  GLU58      -0.2867
     46  CB       -23.9430  -16.6420  -16.3090 C.3    58  GLU58       0.0388
     47  CG       -24.6620  -16.4210  -17.6330 C.3    58  GLU58       0.1160
     48  CD       -25.9830  -17.1740  -17.7110 C.2    58  GLU58       0.3649
     49  OE1      -25.9890  -18.3860  -17.4140 O.co2  58  GLU58      -0.2457
     50  OE2      -27.0090  -16.5570  -18.0740 O.co2  58  GLU58      -0.2457
     51  N        -30.9920  -13.1660  -12.3360 N.3    62  VAL62      -0.1245
     52  CA       -32.2950  -13.1270  -12.9830 C.3    62  VAL62       0.1561
     53  C        -33.4900  -13.1470  -12.0390 C.2    62  VAL62       0.2260
     54  O        -33.5430  -13.9330  -11.0910 O.2    62  VAL62      -0.2867
     55  CB       -32.4420  -14.3050  -13.9840 C.3    62  VAL62       0.0252
     56  CG1      -33.8420  -14.3090  -14.5940 C.3    62  VAL62       0.0019
     57  CG2      -31.3850  -14.1920  -15.0790 C.3    62  VAL62       0.0019
     58  N        -37.6960  -13.4310  -11.9900 N.3    64  ASN64      -0.1240
     59  CA       -38.8460  -13.8300  -12.7830 C.3    64  ASN64       0.1653
     60  C        -39.9510  -14.4020  -11.9120 C.2    64  ASN64       0.2266
     61  O        -39.8080  -14.5340  -10.6900 O.2    64  ASN64      -0.2867
     62  CB       -38.4390  -14.8740  -13.8260 C.3    64  ASN64       0.1155
     63  CG       -39.2460  -14.7580  -15.1130 C.2    64  ASN64       0.2627
     64  OD1      -40.4450  -14.4870  -15.0870 O.2    64  ASN64      -0.2716
     65  ND2      -38.5880  -14.9720  -16.2430 N.am   64  ASN64      -0.0877
     66  N        -41.7410  -19.5140  -18.0550 N.3    72  TRP72      -0.1241
     67  CA       -41.2220  -18.2580  -17.5190 C.3    72  TRP72       0.1605
     68  C        -41.5380  -17.0180  -18.3430 C.2    72  TRP72       0.2264
     69  O        -41.4370  -17.0300  -19.5740 O.2    72  TRP72      -0.2867
     70  CB       -39.7060  -18.3450  -17.3390 C.3    72  TRP72       0.0550
     71  CG       -39.2920  -19.3750  -16.3520 C.ar   72  TRP72       0.0003
     72  CD1      -38.9120  -20.6610  -16.6140 C.ar   72  TRP72       0.0946
     73  CD2      -39.2540  -19.2250  -14.9290 C.ar   72  TRP72       0.0152
     74  NE1      -38.6400  -21.3210  -15.4400 N.ar   72  TRP72      -0.2442
     75  CE2      -38.8430  -20.4640  -14.3900 C.ar   72  TRP72       0.0810
     76  CE3      -39.5310  -18.1660  -14.0560 C.ar   72  TRP72       0.0012
     77  CZ2      -38.6990  -20.6710  -13.0140 C.ar   72  TRP72       0.0191
     78  CZ3      -39.3880  -18.3740  -12.6860 C.ar   72  TRP72       0.0001
     79  CH2      -38.9760  -19.6170  -12.1820 C.ar   72  TRP72       0.0015
     80  N        -37.5650  -11.9210  -18.4320 N.3    75  GLU75      -0.1245
     81  CA       -36.5780  -11.8240  -17.3730 C.3    75  GLU75       0.1567
     82  C        -36.2270  -10.3810  -17.0360 C.2    75  GLU75       0.2260
     83  O        -36.3320   -9.4800  -17.8720 O.2    75  GLU75      -0.2867
     84  CB       -35.2860  -12.5530  -17.7560 C.3    75  GLU75       0.0388
     85  CG       -35.4060  -14.0530  -17.9480 C.3    75  GLU75       0.1160
     86  CD       -34.0460  -14.7280  -17.9780 C.2    75  GLU75       0.3649
     87  OE1      -33.1170  -14.1690  -18.6050 O.co2  75  GLU75      -0.2457
     88  OE2      -33.9050  -15.8170  -17.3790 O.co2  75  GLU75      -0.2457
     89  N        -32.9790   -8.9160  -15.4120 N.3    77  ARG77      -0.1245
     90  CA       -31.6380   -9.1980  -14.9380 C.3    77  ARG77       0.1563
     91  C        -30.8240   -7.9730  -14.5640 C.2    77  ARG77       0.2260
     92  O        -31.1540   -6.8410  -14.9210 O.2    77  ARG77      -0.2867
     93  CB       -30.8760  -10.0030  -15.9890 C.3    77  ARG77       0.0307
     94  CG       -30.7580   -9.3180  -17.3390 C.3    77  ARG77       0.0489
     95  CD       -30.0610  -10.2390  -18.3310 C.3    77  ARG77       0.2205
     96  NE       -30.6480  -11.5780  -18.3090 N.pl3  77  ARG77      -0.0865
     97  CZ       -30.0020  -12.6830  -18.6690 C.cat  77  ARG77       0.5346
     98  NH1      -28.7420  -12.6130  -19.0860 N.pl3  77  ARG77       0.1354
     99  NH2      -30.6080  -13.8610  -18.5910 N.pl3  77  ARG77       0.1354
@<TRIPOS>BOND
     1    69    68    2
     2    98    97    1
     3    97    99    1
     4    97    96    2
     5    87    86   ar
     6    80    81    1
     7    68    67    1
     8    95    96    1
     9    95    94    1
    10    50    48   ar
    11    66    67    1
    12    86    85    1
    13    86    88   ar
    14    85    84    1
    15    83    82    2
    16    84    81    1
    17    48    47    1
    18    48    49   ar
    19    47    46    1
    20    67    70    1
    21    81    82    1
    22    94    93    1
    23    70    71    1
    24    40    39    1
    25    72    71   ar
    26    72    74   ar
    27    45    44    2
    28    71    73   ar
    29    46    43    1
    30    65    63   am
    31    43    44    1
    32    43    42    1
    33    93    90    1
    34    39    41    1
    35    39    38    2
    36    74    75   ar
    37    89    90    1
    38    63    64    2
    39    63    62    1
    40    57    55    1
    41    90    91    1
    42    73    75   ar
    43    73    76   ar
    44    92    91    2
    45    37    38    1
    46    37    36    1
    47    56    55    1
    48    75    77   ar
    49    76    78   ar
    50    55    52    1
    51    62    59    1
    52    35    36    1
    53    35    32    1
    54    77    79   ar
    55    52    51    1
    56    52    53    1
    57    34    33    2
    58    59    58    1
    59    59    60    1
    60    78    79   ar
    61     6     5    1
    62    53    54    2
    63    60    61    2
    64    33    32    1
    65    30    29    1
    66    32    31    1
    67    24    22   ar
    68    24    23   ar
    69    22    20   ar
    70    29    26    1
    71     5     7    1
    72     5     2    1
    73    28    27    2
    74    23    21   ar
    75    20    19    1
    76    20    21   ar
    77     1     2    1
    78    27    26    1
    79     2     3    1
    80    26    25    1
    81    19    16    1
    82    18    17    2
    83    14    12    1
    84     3     4    2
    85    17    16    1
    86    16    15    1
    87    12    13    1
    88    12     9    1
    89     9     8    1
    90     9    10    1
    91    10    11    2
