@<TRIPOS>MOLECULE
tmp/1uljC00.pdb
 146 138 0 0 0
SMALL
GASTEIGER

@<TRIPOS>ATOM
      1  N          7.0110   55.2130   67.3350 N.3   201  GLN201     -0.1231
      2  CA         7.3790   56.1860   68.3530 C.3   201  GLN201      0.1698
      3  C          7.9650   57.4440   67.7280 C.2   201  GLN201      0.2592
      4  O          7.5620   58.5500   68.0650 O.2   201  GLN201     -0.2718
      5  CB         8.3340   55.6030   69.3830 C.3   201  GLN201      0.0381
      6  CG         8.5570   56.5590   70.5270 C.3   201  GLN201      0.0905
      7  CD         9.5830   56.0690   71.4800 C.2   201  GLN201      0.2608
      8  OE1        9.2630   55.3060   72.4110 O.2   201  GLN201     -0.2717
      9  NE2       10.8300   56.4910   71.2710 N.am  201  GLN201     -0.0878
     10  N          8.9010   57.2820   66.8060 N.am  202  PHE202     -0.1976
     11  CA         9.5180   58.4380   66.1570 C.3   202  PHE202      0.1639
     12  C          8.5460   59.1070   65.1690 C.2   202  PHE202      0.2290
     13  O          8.7900   60.2270   64.7200 O.2   202  PHE202     -0.2864
     14  CB        10.8350   58.0420   65.4760 C.3   202  PHE202      0.0560
     15  CG        11.9730   57.8180   66.4490 C.ar  202  PHE202     -0.0200
     16  CD1       11.8720   56.8640   67.4630 C.ar  202  PHE202     -0.0042
     17  CD2       13.1520   58.5640   66.3510 C.ar  202  PHE202     -0.0042
     18  CE1       12.9190   56.6620   68.3600 C.ar  202  PHE202     -0.0003
     19  CE2       14.2020   58.3590   67.2410 C.ar  202  PHE202     -0.0003
     20  CZ        14.0870   57.4040   68.2500 C.ar  202  PHE202     -0.0000
     21  N          4.9320   60.1190   68.5520 N.3   205  ASP205     -0.1225
     22  CA         4.8950   59.9100   69.9940 C.3   205  ASP205      0.1805
     23  C          5.7900   60.9160   70.7440 C.2   205  ASP205      0.2597
     24  O          6.8180   60.5510   71.3290 O.2   205  ASP205     -0.2718
     25  CB         5.2900   58.4510   70.2830 C.3   205  ASP205      0.1424
     26  CG         4.7970   57.9490   71.6310 C.2   205  ASP205      0.3668
     27  OD1        4.3160   58.7810   72.4440 O.co2 205  ASP205     -0.2456
     28  OD2        4.8730   56.7310   71.9550 O.co2 205  ASP205     -0.2456
     29  N          5.3890   62.1840   70.7070 N.am  206  MET206     -0.1979
     30  CA         5.9680   63.2030   71.5680 C.3   206  MET206      0.1605
     31  C          5.4010   63.0950   72.9770 C.2   206  MET206      0.2287
     32  O          6.0490   63.4890   73.9380 O.2   206  MET206     -0.2864
     33  CB         5.6710   64.5900   71.0290 C.3   206  MET206      0.0413
     34  CG         6.5450   65.6630   71.6400 C.3   206  MET206      0.0598
     35  SD         8.0810   65.8190   70.7120 S.3   206  MET206     -0.1393
     36  CE         9.2160   65.7640   72.0190 C.3   206  MET206      0.0692
     37  N          5.2230   60.6190   74.9460 N.3   208  HIS208     -0.1226
     38  CA         6.1050   59.8930   75.8700 C.3   208  HIS208      0.1752
     39  C          7.2550   60.7750   76.3830 C.2   208  HIS208      0.2595
     40  O          7.7080   60.6170   77.5140 O.2   208  HIS208     -0.2718
     41  CB         6.6140   58.5580   75.2480 C.3   208  HIS208      0.0759
     42  CG         7.8990   58.6660   74.4840 C.ar  208  HIS208      0.0818
     43  ND1        8.0660   59.5200   73.4170 N.ar  208  HIS208     -0.2268
     44  CD2        9.0710   58.0020   74.6200 C.ar  208  HIS208      0.1154
     45  CE1        9.2940   59.3980   72.9460 C.ar  208  HIS208      0.1986
     46  NE2        9.9240   58.4830   73.6580 N.ar  208  HIS208     -0.2212
     47  N          7.7100   61.7040   75.5480 N.am  209  ALA209     -0.1980
     48  CA         8.7430   62.6670   75.9270 C.3   209  ALA209      0.1597
     49  C          8.2140   63.6700   76.9430 C.2   209  ALA209      0.2287
     50  O          8.8980   64.0200   77.9110 O.2   209  ALA209     -0.2864
     51  CB         9.2440   63.4050   74.6910 C.3   209  ALA209      0.0319
     52  N         11.1150   59.9500   79.9010 N.3   214  HIS214     -0.1241
     53  CA        12.4210   60.6080   79.8630 C.3   214  HIS214      0.1621
     54  C         12.6310   61.6580   80.9370 C.2   214  HIS214      0.2264
     55  O         13.4730   62.5250   80.7810 O.2   214  HIS214     -0.2867
     56  CB        12.6370   61.2070   78.4780 C.3   214  HIS214      0.0745
     57  CG        12.7360   60.1790   77.3960 C.ar  214  HIS214      0.0817
     58  ND1       13.6850   59.1800   77.4090 N.ar  214  HIS214     -0.2268
     59  CD2       11.9940   59.9810   76.2770 C.ar  214  HIS214      0.1154
     60  CE1       13.5350   58.4250   76.3350 C.ar  214  HIS214      0.1986
     61  NE2       12.5180   58.8890   75.6310 N.ar  214  HIS214     -0.2212
     62  N         16.2170   64.1040   81.1840 N.3   218  ILE218     -0.1245
     63  CA        16.0790   65.5590   81.3060 C.3   218  ILE218      0.1561
     64  C         16.8600   66.0680   82.5240 C.2   218  ILE218      0.2260
     65  O         17.5370   67.0930   82.4440 O.2   218  ILE218     -0.2867
     66  CB        14.5610   65.9690   81.3810 C.3   218  ILE218      0.0252
     67  CG1       13.8790   65.7210   80.0290 C.3   218  ILE218      0.0019
     68  CG2       14.3850   67.4340   81.8000 C.3   218  ILE218      0.0019
     69  CD1       12.3410   65.6970   80.0740 C.3   218  ILE218      0.0001
     70  N         13.3750   72.6270   76.6120 N.3   246  LEU246     -0.1245
     71  CA        13.5580   71.1690   76.4720 C.3   246  LEU246      0.1561
     72  C         14.7920   70.7720   75.6540 C.2   246  LEU246      0.2260
     73  O         15.5170   69.8520   76.0430 O.2   246  LEU246     -0.2867
     74  CB        12.3130   70.4890   75.8830 C.3   246  LEU246      0.0270
     75  CG        12.2790   68.9510   75.9980 C.3   246  LEU246      0.0019
     76  CD1       11.3610   68.4610   77.1240 C.3   246  LEU246      0.0001
     77  CD2       11.8730   68.3180   74.6770 C.3   246  LEU246      0.0001
     78  N         18.3030   68.2820   76.4880 N.3   250  ILE250     -0.1245
     79  CA        18.7270   67.1400   75.6970 C.3   250  ILE250      0.1561
     80  C         20.1370   67.3380   75.1340 C.2   250  ILE250      0.2260
     81  O         21.0000   66.4840   75.3060 O.2   250  ILE250     -0.2867
     82  CB        17.7350   66.8920   74.5540 C.3   250  ILE250      0.0252
     83  CG1       16.3300   66.6390   75.1130 C.3   250  ILE250      0.0019
     84  CG2       18.1850   65.7100   73.7020 C.3   250  ILE250      0.0019
     85  CD1       15.2300   67.0090   74.1550 C.3   250  ILE250      0.0001
     86  N         13.1860   70.0120   69.1990 N.3   283  ALA283     -0.1245
     87  CA        13.0260   68.5630   69.3760 C.3   283  ALA283      0.1562
     88  C         11.9750   67.9740   68.4380 C.2   283  ALA283      0.2260
     89  O         10.8910   67.5650   68.8500 O.2   283  ALA283     -0.2867
     90  CB        12.7040   68.2210   70.8330 C.3   283  ALA283      0.0290
     91  N         10.8020   64.9500   65.9290 N.3   285  HIS285     -0.1241
     92  CA        10.9430   63.5180   65.7160 C.3   285  HIS285      0.1621
     93  C         10.2500   63.1800   64.4100 C.2   285  HIS285      0.2264
     94  O          9.3440   63.9020   64.0040 O.2   285  HIS285     -0.2867
     95  CB        10.2840   62.7410   66.8600 C.3   285  HIS285      0.0745
     96  CG         8.8170   63.0140   67.0090 C.ar  285  HIS285      0.0817
     97  ND1        7.8580   62.3950   66.2330 N.ar  285  HIS285     -0.2268
     98  CD2        8.1490   63.8550   67.8330 C.ar  285  HIS285      0.1154
     99  CE1        6.6620   62.8290   66.5900 C.ar  285  HIS285      0.1986
    100  NE2        6.8110   63.7200   67.5560 N.ar  285  HIS285     -0.2212
    101  N         15.5770   62.4590   64.4770 N.3   295  LEU295     -0.1245
    102  CA        15.1710   63.5990   65.2640 C.3   295  LEU295      0.1561
    103  C         15.9150   64.8560   64.8240 C.2   295  LEU295      0.2260
    104  O         17.0120   65.0950   65.3100 O.2   295  LEU295     -0.2867
    105  CB        15.4670   63.3420   66.7360 C.3   295  LEU295      0.0270
    106  CG        15.0740   61.9970   67.3180 C.3   295  LEU295      0.0019
    107  CD1       15.6030   61.8850   68.7380 C.3   295  LEU295      0.0001
    108  CD2       13.5750   61.8320   67.2840 C.3   295  LEU295      0.0001
    109  N         18.5680   67.2690   67.2050 N.3   298  ILE298     -0.1245
    110  CA        19.4590   66.3360   67.8760 C.3   298  ILE298      0.1561
    111  C         20.3600   65.7020   66.8160 C.2   298  ILE298      0.2260
    112  O         21.5490   65.4880   67.0440 O.2   298  ILE298     -0.2867
    113  CB        18.6290   65.2770   68.6240 C.3   298  ILE298      0.0252
    114  CG1       17.9530   65.9160   69.8400 C.3   298  ILE298      0.0019
    115  CG2       19.4900   64.0900   69.0590 C.3   298  ILE298      0.0019
    116  CD1       16.4560   65.8230   69.8090 C.3   298  ILE298      0.0001
    117  N         20.9370   59.7100   72.5830 N.3   340  PHE340     -0.1241
    118  CA        20.1670   58.7690   71.7830 C.3   340  PHE340      0.1605
    119  C         21.0200   57.6420   71.2220 C.2   340  PHE340      0.2264
    120  O         21.2630   57.5460   70.0200 O.2   340  PHE340     -0.2867
    121  CB        19.3800   59.5390   70.7170 C.3   340  PHE340      0.0534
    122  CG        18.2300   60.3060   71.3060 C.ar  340  PHE340     -0.0203
    123  CD1       17.0000   59.6970   71.4930 C.ar  340  PHE340     -0.0042
    124  CD2       18.4070   61.5940   71.7580 C.ar  340  PHE340     -0.0042
    125  CE1       15.9600   60.3790   72.0690 C.ar  340  PHE340     -0.0003
    126  CE2       17.3800   62.2730   72.3310 C.ar  340  PHE340     -0.0003
    127  CZ        16.1490   61.6670   72.4910 C.ar  340  PHE340     -0.0000
    128  N         18.7910   59.0450   77.3820 N.3   346  PHE346     -0.1241
    129  CA        17.4090   59.0090   76.9450 C.3   346  PHE346      0.1605
    130  C         17.0870   57.6190   76.4100 C.2   346  PHE346      0.2264
    131  O         16.2280   56.9140   76.9580 O.2   346  PHE346     -0.2867
    132  CB        17.1510   60.0670   75.8810 C.3   346  PHE346      0.0534
    133  CG        17.0750   61.4650   76.4310 C.ar  346  PHE346     -0.0203
    134  CD1       18.2370   62.2170   76.6250 C.ar  346  PHE346     -0.0042
    135  CD2       15.8540   62.0320   76.7500 C.ar  346  PHE346     -0.0042
    136  CE1       18.1780   63.5000   77.1360 C.ar  346  PHE346     -0.0003
    137  CE2       15.7860   63.3210   77.2550 C.ar  346  PHE346     -0.0003
    138  CZ        16.9530   64.0560   77.4470 C.ar  346  PHE346     -0.0000
    139  N         13.9110   53.8200   76.5720 N.3   350  ASP350     -0.1239
    140  CA        13.0440   53.3510   75.4830 C.3   350  ASP350      0.1674
    141  C         13.2820   51.8440   75.2660 C.2   350  ASP350      0.2266
    142  O         12.3450   51.0840   75.0300 O.2   350  ASP350     -0.2867
    143  CB        13.3170   54.0910   74.1570 C.3   350  ASP350      0.1410
    144  CG        13.0390   55.6100   74.2230 C.2   350  ASP350      0.3668
    145  OD1       14.0000   56.3960   74.2050 O.co2 350  ASP350     -0.2456
    146  OD2       11.9100   56.1320   74.2240 O.co2 350  ASP350     -0.2456
@<TRIPOS>BOND
     1    94    93    2
     2    93    92    1
     3   101   102    1
     4    13    12    2
     5   103   102    1
     6   103   104    2
     7    12    11    1
     8   102   105    1
     9    14    11    1
    10    14    15    1
    11    92    91    1
    12    92    95    1
    13    11    10    1
    14    97    99   ar
    15    97    96   ar
    16    17    15   ar
    17    17    19   ar
    18    15    16   ar
    19    99   100   ar
    20   105   106    1
    21    10     3   am
    22   111   112    2
    23   111   110    1
    24    95    96    1
    25    96    98   ar
    26   109   110    1
    27    19    20   ar
    28   108   106    1
    29   106   107    1
    30     1     2    1
    31    16    18   ar
    32   100    98   ar
    33     3     4    2
    34     3     2    1
    35   110   113    1
    36    20    18   ar
    37     2     5    1
    38    88    89    2
    39    88    87    1
    40    21    22    1
    41   113   115    1
    42   113   114    1
    43    86    87    1
    44    87    90    1
    45     5     6    1
    46   116   114    1
    47    22    25    1
    48    22    23    1
    49   120   119    2
    50    25    26    1
    51     6     7    1
    52    29    23   am
    53    29    30    1
    54    35    34    1
    55    35    36    1
    56   121   122    1
    57   121   118    1
    58    23    24    2
    59    33    30    1
    60    33    34    1
    61   119   118    1
    62     9     7   am
    63   122   123   ar
    64   122   124   ar
    65     7     8    2
    66   123   125   ar
    67    30    31    1
    68    26    28   ar
    69    26    27   ar
    70   124   126   ar
    71   118   117    1
    72   125   127   ar
    73   126   127   ar
    74    45    43   ar
    75    45    46   ar
    76    31    32    2
    77    43    42   ar
    78    46    44   ar
    79    84    82    1
    80    85    83    1
    81   143   144    1
    82   143   140    1
    83   145   144   ar
    84   144   146   ar
    85    42    44   ar
    86    42    41    1
    87    82    83    1
    88    82    79    1
    89    77    75    1
    90    51    48    1
    91    37    38    1
    92   142   141    2
    93    80    81    2
    94    80    79    1
    95    41    38    1
    96   141   140    1
    97   140   139    1
    98    47    48    1
    99    47    39   am
   100    61    59   ar
   101    61    60   ar
   102    72    73    2
   103    72    71    1
   104    79    78    1
   105    38    39    1
   106   132   133    1
   107   132   129    1
   108    74    75    1
   109    74    71    1
   110    48    49    1
   111    75    76    1
   112    59    57   ar
   113    60    58   ar
   114    39    40    2
   115   130   129    1
   116   130   131    2
   117   133   134   ar
   118   133   135   ar
   119    71    70    1
   120   134   136   ar
   121   135   137   ar
   122    49    50    2
   123   129   128    1
   124   136   138   ar
   125   137   138   ar
   126    57    58   ar
   127    57    56    1
   128    56    53    1
   129    53    52    1
   130    53    54    1
   131    67    69    1
   132    67    66    1
   133    55    54    2
   134    62    63    1
   135    63    66    1
   136    63    64    1
   137    66    68    1
   138    65    64    2
