@<TRIPOS>MOLECULE
tmp/1ulmA00.pdb
 96 96 0 0 0
SMALL
GASTEIGER

@<TRIPOS>ATOM
      1  N         28.0140   -2.8730    0.7610 N.3    27  THR27      -0.1203
      2  CA        28.8850   -1.7410    0.4660 C.3    27  THR27       0.1994
      3  C         28.2260   -0.5450   -0.2170 C.2    27  THR27       0.2619
      4  O         28.9070    0.4320   -0.5200 O.2    27  THR27      -0.2717
      5  CB        30.0720   -2.2050   -0.4010 C.3    27  THR27       0.1784
      6  OG1       29.5910   -2.6540   -1.6770 O.3    27  THR27      -0.2211
      7  CG2       30.8130   -3.3680    0.2870 C.3    27  THR27       0.0376
      8  N         26.9180   -0.6170   -0.4670 N.am   28  THR28      -0.1938
      9  CA        26.2190    0.5130   -1.0870 C.3    28  THR28       0.2028
     10  C         25.9010    1.5510   -0.0050 C.2    28  THR28       0.2642
     11  O         26.1630    1.3270    1.1830 O.2    28  THR28      -0.2714
     12  CB        24.8840    0.0790   -1.7360 C.3    28  THR28       0.1808
     13  OG1       24.0000   -0.4070   -0.7200 O.3    28  THR28      -0.2208
     14  CG2       25.1250   -0.9990   -2.7730 C.3    28  THR28       0.0379
     15  N         25.3200    2.6820   -0.3990 N.am   29  ASP29      -0.1971
     16  CA        25.0100    3.7110    0.5900 C.3    29  ASP29       0.1709
     17  C         23.9870    3.2470    1.6320 C.2    29  ASP29       0.2293
     18  O         23.9720    3.7430    2.7550 O.2    29  ASP29      -0.2864
     19  CB        24.5370    4.9930   -0.1080 C.3    29  ASP29       0.1436
     20  CG        24.3680    6.1590    0.8620 C.2    29  ASP29       0.3671
     21  OD1       23.2180    6.5080    1.1580 O.co2  29  ASP29      -0.2456
     22  OD2       25.3840    6.7160    1.3290 O.co2  29  ASP29      -0.2456
     23  N         34.9140    2.4890    1.8410 N.3    43  TRP43      -0.1241
     24  CA        35.4020    3.0980    0.6140 C.3    43  TRP43       0.1605
     25  C         36.5140    4.1190    0.7490 C.2    43  TRP43       0.2264
     26  O         36.9590    4.6610   -0.2550 O.2    43  TRP43      -0.2867
     27  CB        34.2480    3.7580   -0.1440 C.3    43  TRP43       0.0550
     28  CG        33.2070    2.7740   -0.5760 C.ar   43  TRP43       0.0003
     29  CD1       32.0310    2.5100    0.0530 C.ar   43  TRP43       0.0946
     30  CD2       33.2660    1.9020   -1.7140 C.ar   43  TRP43       0.0152
     31  NE1       31.3450    1.5270   -0.6250 N.ar   43  TRP43      -0.2442
     32  CE2       32.0800    1.1350   -1.7080 C.ar   43  TRP43       0.0810
     33  CE3       34.2040    1.6880   -2.7350 C.ar   43  TRP43       0.0012
     34  CZ2       31.8000    0.1730   -2.6940 C.ar   43  TRP43       0.0191
     35  CZ3       33.9260    0.7340   -3.7110 C.ar   43  TRP43       0.0001
     36  CH2       32.7300   -0.0130   -3.6780 C.ar   43  TRP43       0.0015
     37  N         42.5740    6.5530   -4.5600 N.3    61  SER61      -0.1217
     38  CA        42.7770    7.8420   -5.2280 C.3    61  SER61       0.1889
     39  C         43.4930    8.8700   -4.3630 C.2    61  SER61       0.2288
     40  O         43.6360    8.6790   -3.1630 O.2    61  SER61      -0.2866
     41  CB        41.4320    8.4420   -5.6330 C.3    61  SER61       0.2089
     42  OG        40.9070    9.1900   -4.5470 O.3    61  SER61      -0.2183
     43  N         42.3230   11.4490   -3.4600 N.3    63  TYR63      -0.1241
     44  CA        41.3130   12.0240   -2.5780 C.3    63  TYR63       0.1605
     45  C         40.9020   11.0730   -1.4640 C.2    63  TYR63       0.2264
     46  O         40.0180   11.3930   -0.6710 O.2    63  TYR63      -0.2867
     47  CB        40.0810   12.4270   -3.3880 C.3    63  TYR63       0.0534
     48  CG        40.4190   13.3420   -4.5380 C.ar   63  TYR63      -0.0201
     49  CD1       40.6780   14.6970   -4.3230 C.ar   63  TYR63      -0.0009
     50  CD2       40.5220   12.8470   -5.8390 C.ar   63  TYR63      -0.0009
     51  CE1       41.0330   15.5340   -5.3750 C.ar   63  TYR63       0.0417
     52  CE2       40.8810   13.6760   -6.8970 C.ar   63  TYR63       0.0417
     53  CZ        41.1360   15.0180   -6.6550 C.ar   63  TYR63       0.1957
     54  OH        41.5120   15.8380   -7.6950 O.3    63  TYR63      -0.2866
     55  N         39.6110    7.8730   -1.8300 N.3    65  TRP65      -0.1227
     56  CA        38.4630    7.0130   -2.1480 C.3    65  TRP65       0.1737
     57  C         38.9370    5.8120   -2.9540 C.2    65  TRP65       0.2596
     58  O         39.8740    5.9080   -3.7420 O.2    65  TRP65      -0.2718
     59  CB        37.4270    7.7670   -2.9800 C.3    65  TRP65       0.0564
     60  CG        36.6870    8.7750   -2.2050 C.ar   65  TRP65       0.0003
     61  CD1       37.0380   10.0820   -2.0050 C.ar   65  TRP65       0.0946
     62  CD2       35.4780    8.5640   -1.4760 C.ar   65  TRP65       0.0152
     63  NE1       36.1210   10.6950   -1.1960 N.ar   65  TRP65      -0.2442
     64  CE2       35.1470    9.7860   -0.8530 C.ar   65  TRP65       0.0810
     65  CE3       34.6340    7.4560   -1.2890 C.ar   65  TRP65       0.0012
     66  CZ2       34.0120    9.9390   -0.0510 C.ar   65  TRP65       0.0191
     67  CZ3       33.4970    7.6050   -0.4870 C.ar   65  TRP65       0.0001
     68  CH2       33.1990    8.8410    0.1220 C.ar   65  TRP65       0.0015
     69  N         38.2710    4.6830   -2.7560 N.am   66  CYS66      -0.1956
     70  CA        38.6100    3.4580   -3.4570 C.3    66  CYS66       0.1843
     71  C         37.8490    3.3680   -4.7620 C.2    66  CYS66       0.2626
     72  O         36.6620    3.6730   -4.8040 O.2    66  CYS66      -0.2714
     73  CB        38.2660    2.2500   -2.5840 C.3    66  CYS66       0.0997
     74  SG        39.2490    2.0940   -1.0770 S.3    66  CYS66      -0.0797
     75  N         38.5280    2.9180   -5.8150 N.am   67  GLY67      -0.1954
     76  CA        37.8830    2.7930   -7.1110 C.3    67  GLY67       0.1869
     77  C         38.7620    2.1690   -8.1790 C.2    67  GLY67       0.2309
     78  O         39.9170    1.8240   -7.9260 O.2    67  GLY67      -0.2863
     79  N         40.6250    8.0580  -12.7310 N.3    71  ASP71      -0.1225
     80  CA        40.7220    9.1230  -11.7460 C.3    71  ASP71       0.1805
     81  C         41.1720    8.5820  -10.3930 C.2    71  ASP71       0.2597
     82  O         41.7760    9.3030   -9.6060 O.2    71  ASP71      -0.2718
     83  CB        39.3790    9.8340  -11.6030 C.3    71  ASP71       0.1424
     84  CG        39.0120   10.6270  -12.8400 C.2    71  ASP71       0.3668
     85  OD1       37.8060   10.7790  -13.1080 O.co2  71  ASP71      -0.2456
     86  OD2       39.9330   11.1020  -13.5380 O.co2  71  ASP71      -0.2456
     87  N         40.8790    7.3160  -10.1210 N.am   72  HIS72      -0.1975
     88  CA        41.2890    6.7350   -8.8510 C.3    72  HIS72       0.1656
     89  C         42.6650    6.1020   -8.9550 C.2    72  HIS72       0.2291
     90  O         43.3700    5.9910   -7.9610 O.2    72  HIS72      -0.2864
     91  CB        40.3290    5.6310   -8.4000 C.3    72  HIS72       0.0771
     92  CG        38.9410    6.0960   -8.1070 C.ar   72  HIS72       0.0820
     93  ND1       38.0160    6.3470   -9.1030 N.ar   72  HIS72      -0.2267
     94  CD2       38.3130    6.3380   -6.9380 C.ar   72  HIS72       0.1154
     95  CE1       36.8780    6.7250   -8.5500 C.ar   72  HIS72       0.1986
     96  NE2       37.0280    6.7280   -7.2410 N.ar   72  HIS72      -0.2212
@<TRIPOS>BOND
     1    86    84   ar
     2    85    84   ar
     3    84    83    1
     4    79    80    1
     5    80    83    1
     6    80    81    1
     7    81    87   am
     8    81    82    2
     9    87    88    1
    10    93    95   ar
    11    93    92   ar
    12    89    88    1
    13    89    90    2
    14    88    91    1
    15    95    96   ar
    16    91    92    1
    17    77    78    2
    18    77    76    1
    19    92    94   ar
    20    54    53    1
    21    96    94   ar
    22    76    75    1
    23    52    53   ar
    24    52    50   ar
    25    53    51   ar
    26    50    48   ar
    27    75    71   am
    28    41    38    1
    29    41    42    1
    30    51    49   ar
    31    38    37    1
    32    38    39    1
    33    72    71    2
    34    71    70    1
    35    48    49   ar
    36    48    47    1
    37    39    40    2
    38    58    57    2
    39    35    36   ar
    40    35    33   ar
    41    36    34   ar
    42    43    44    1
    43    70    69    1
    44    70    73    1
    45    47    44    1
    46    59    60    1
    47    59    56    1
    48    57    69   am
    49    57    56    1
    50    14    12    1
    51    33    30   ar
    52    34    32   ar
    53    73    74    1
    54    44    45    1
    55    60    61   ar
    56    60    62   ar
    57    56    55    1
    58    61    63   ar
    59    12     9    1
    60    12    13    1
    61    30    32   ar
    62    30    28   ar
    63    32    31   ar
    64     6     5    1
    65    62    65   ar
    66    62    64   ar
    67    45    46    2
    68    65    67   ar
    69    63    64   ar
    70     9     8    1
    71     9    10    1
    72    64    66   ar
    73    31    29   ar
    74    28    27    1
    75    28    29   ar
    76     4     3    2
    77    67    68   ar
    78     8     3   am
    79     5     7    1
    80     5     2    1
    81    15    10   am
    82    15    16    1
    83    26    25    2
    84     3     2    1
    85    27    24    1
    86    19    16    1
    87    19    20    1
    88    66    68   ar
    89    10    11    2
    90     2     1    1
    91    16    17    1
    92    24    25    1
    93    24    23    1
    94    20    21   ar
    95    20    22   ar
    96    17    18    2
