@<TRIPOS>MOLECULE
tmp/1um0B00.pdb
 183 177 0 0 0
SMALL
GASTEIGER

@<TRIPOS>ATOM
      1  N         31.3150   -0.1010    4.2500 N.3   103  SER103     -0.1202
      2  CA        32.7090    0.2500    4.5020 C.3   103  SER103      0.2020
      3  C         33.1960    1.4550    3.7110 C.2   103  SER103      0.2619
      4  O         34.3910    1.7470    3.6900 O.2   103  SER103     -0.2717
      5  CB        33.6230   -0.9490    4.2330 C.3   103  SER103      0.2103
      6  OG        33.5630   -1.8680    5.3080 O.3   103  SER103     -0.2182
      7  N         32.2720    2.1480    3.0560 N.am  104  HIS104     -0.1961
      8  CA        32.6220    3.3410    2.2990 C.3   104  HIS104      0.1787
      9  C         32.1690    4.5610    3.0890 C.2   104  HIS104      0.2620
     10  O         31.3260    4.4560    3.9760 O.2   104  HIS104     -0.2715
     11  CB        31.9590    3.3380    0.9180 C.3   104  HIS104      0.0785
     12  CG        32.5970    2.3980   -0.0560 C.ar  104  HIS104      0.0821
     13  ND1       32.2670    1.0620   -0.1290 N.ar  104  HIS104     -0.2267
     14  CD2       33.5670    2.5970   -0.9800 C.ar  104  HIS104      0.1154
     15  CE1       33.0040    0.4790   -1.0580 C.ar  104  HIS104      0.1986
     16  NE2       33.8020    1.3880   -1.5890 N.ar  104  HIS104     -0.2212
     17  N         32.7320    5.7170    2.7600 N.am  105  ALA105     -0.1977
     18  CA        32.3990    6.9530    3.4500 C.3   105  ALA105      0.1597
     19  C         31.1240    7.6130    2.9320 C.2   105  ALA105      0.2287
     20  O         30.7570    8.6940    3.3980 O.2   105  ALA105     -0.2864
     21  CB        33.5680    7.9270    3.3450 C.3   105  ALA105      0.0319
     22  N         37.0920    5.5870   -8.5820 N.3   122  GLY122     -0.1210
     23  CA        37.7720    5.0680   -7.4090 C.3   122  GLY122      0.1956
     24  C         37.3580    5.7840   -6.1360 C.2   122  GLY122      0.2612
     25  O         37.9880    5.6260   -5.0890 O.2   122  GLY122     -0.2717
     26  N         36.2980    6.5810   -6.2410 N.am  123  ARG123     -0.1965
     27  CA        35.7420    7.3490   -5.1260 C.3   123  ARG123      0.1729
     28  C         36.7430    8.1860   -4.3200 C.2   123  ARG123      0.2617
     29  O         37.7080    8.7240   -4.8650 O.2   123  ARG123     -0.2715
     30  CB        34.9780    6.4200   -4.1710 C.3   123  ARG123      0.0348
     31  CG        35.8670    5.5270   -3.3170 C.3   123  ARG123      0.0492
     32  CD        35.1990    5.2250   -1.9930 C.3   123  ARG123      0.2205
     33  NE        34.6310    6.4350   -1.4060 N.pl3 123  ARG123     -0.0865
     34  CZ        34.0760    6.4950   -0.2010 C.cat 123  ARG123      0.5346
     35  NH1       34.0150    5.4100    0.5570 N.pl3 123  ARG123      0.1354
     36  NH2       33.5700    7.6390    0.2390 N.pl3 123  ARG123      0.1354
     37  N         36.4870    8.2840   -3.0170 N.am  124  SER124     -0.1936
     38  CA        37.3030    9.0480   -2.0730 C.3   124  SER124      0.2055
     39  C         38.8160    9.0080   -2.2870 C.2   124  SER124      0.2644
     40  O         39.3910    9.9360   -2.8560 O.2   124  SER124     -0.2714
     41  CB        36.9840    8.6020   -0.6410 C.3   124  SER124      0.2130
     42  OG        37.7320    9.3450    0.3070 O.3   124  SER124     -0.2179
     43  N         39.4570    7.9410   -1.8170 N.am  125  SER125     -0.1935
     44  CA        40.9080    7.7950   -1.9420 C.3   125  SER125      0.2055
     45  C         41.4090    7.7670   -3.3850 C.2   125  SER125      0.2642
     46  O         40.8100    8.3720   -4.2740 O.2   125  SER125     -0.2714
     47  CB        41.3730    6.5280   -1.2190 C.3   125  SER125      0.2130
     48  OG        41.1750    6.6360    0.1790 O.3   125  SER125     -0.2179
     49  N         42.5170    7.0620   -3.6040 N.am  126  ALA126     -0.1977
     50  CA        43.1190    6.9490   -4.9270 C.3   126  ALA126      0.1597
     51  C         43.6950    8.2910   -5.3550 C.2   126  ALA126      0.2287
     52  O         44.9120    8.4500   -5.4520 O.2   126  ALA126     -0.2864
     53  CB        42.0850    6.4750   -5.9450 C.3   126  ALA126      0.0319
     54  N         46.0220    9.8860   -2.7500 N.3   129  SER129     -0.1217
     55  CA        47.2960    9.1810   -2.6650 C.3   129  SER129      0.1889
     56  C         48.2950    9.7610   -3.6550 C.2   129  SER129      0.2288
     57  O         49.4790    9.8860   -3.3560 O.2   129  SER129     -0.2866
     58  CB        47.1020    7.6850   -2.9390 C.3   129  SER129      0.2089
     59  OG        46.3890    7.0720   -1.8800 O.3   129  SER129     -0.2183
     60  N         44.9860    7.6140    6.9250 N.3   240  LEU240     -0.1231
     61  CA        44.9300    6.9840    5.6060 C.3   240  LEU240      0.1693
     62  C         43.6970    6.0910    5.5250 C.2   240  LEU240      0.2592
     63  O         43.4340    5.2900    6.4200 O.2   240  LEU240     -0.2718
     64  CB        46.1800    6.1390    5.3560 C.3   240  LEU240      0.0284
     65  CG        46.8010    6.2000    3.9560 C.3   240  LEU240      0.0019
     66  CD1       47.6730    4.9740    3.7470 C.3   240  LEU240      0.0001
     67  CD2       45.7270    6.2610    2.8940 C.3   240  LEU240      0.0001
     68  N         42.9360    6.2310    4.4490 N.am  241  ASN241     -0.1960
     69  CA        41.7400    5.4260    4.2850 C.3   241  ASN241      0.1819
     70  C         42.0810    3.9360    4.3080 C.2   241  ASN241      0.2622
     71  O         42.9840    3.4790    3.6040 O.2   241  ASN241     -0.2715
     72  CB        41.0410    5.8080    2.9840 C.3   241  ASN241      0.1195
     73  CG        39.5960    6.1870    3.2050 C.2   241  ASN241      0.2630
     74  OD1       38.9710    6.8600    2.3820 O.2   241  ASN241     -0.2716
     75  ND2       39.0490    5.7430    4.3240 N.am  241  ASN241     -0.0877
     76  N         41.3710    3.1920    5.1490 N.am  242  GLY242     -0.1940
     77  CA        41.6090    1.7630    5.2690 C.3   242  GLY242      0.2014
     78  C         42.4260    1.3760    6.4900 C.2   242  GLY242      0.2639
     79  O         42.4200    0.2230    6.9150 O.2   242  GLY242     -0.2714
     80  N         43.1290    2.3390    7.0720 N.am  243  VAL243     -0.1963
     81  CA        43.9590    2.0650    8.2420 C.3   243  VAL243      0.1727
     82  C         43.1280    1.9830    9.5210 C.2   243  VAL243      0.2616
     83  O         42.3700    2.9000    9.8240 O.2   243  VAL243     -0.2715
     84  CB        45.0400    3.1570    8.4120 C.3   243  VAL243      0.0290
     85  CG1       45.8290    2.9160    9.6950 C.3   243  VAL243      0.0023
     86  CG2       45.9690    3.1570    7.1970 C.3   243  VAL243      0.0023
     87  N         43.2750    0.8910   10.2710 N.am  244  LYS244     -0.1977
     88  CA        42.5160    0.7190   11.5130 C.3   244  LYS244      0.1596
     89  C         43.4070    0.6100   12.7480 C.2   244  LYS244      0.2287
     90  O         42.9100    0.5830   13.8750 O.2   244  LYS244     -0.2864
     91  CB        41.6170   -0.5280   11.4340 C.3   244  LYS244      0.0298
     92  CG        40.6330   -0.5440   10.2620 C.3   244  LYS244      0.0038
     93  CD        39.7250    0.6880   10.2300 C.3   244  LYS244      0.0206
     94  CE        38.8280    0.7910   11.4590 C.3   244  LYS244      0.1093
     95  NZ        37.9570    2.0160   11.3850 N.3   244  LYS244     -0.1314
     96  N         45.8190   -2.4490    7.4980 N.3   295  PHE295     -0.1227
     97  CA        44.7230   -2.0900    6.5990 C.3   295  PHE295      0.1736
     98  C         43.5960   -3.1160    6.6290 C.2   295  PHE295      0.2595
     99  O         43.8380   -4.3240    6.6230 O.2   295  PHE295     -0.2718
    100  CB        45.2010   -1.9780    5.1440 C.3   295  PHE295      0.0547
    101  CG        46.1450   -0.8310    4.8870 C.ar  295  PHE295     -0.0202
    102  CD1       47.4730   -0.9060    5.2710 C.ar  295  PHE295     -0.0042
    103  CD2       45.6980    0.3210    4.2440 C.ar  295  PHE295     -0.0042
    104  CE1       48.3530    0.1530    5.0180 C.ar  295  PHE295     -0.0003
    105  CE2       46.5640    1.3790    3.9880 C.ar  295  PHE295     -0.0003
    106  CZ        47.8910    1.2990    4.3730 C.ar  295  PHE295     -0.0000
    107  N         42.3650   -2.6280    6.6510 N.am  296  LYS296     -0.1980
    108  CA        41.2030   -3.5050    6.6160 C.3   296  LYS296      0.1596
    109  C         41.1070   -3.9410    5.1490 C.2   296  LYS296      0.2287
    110  O         41.7340   -3.3350    4.2780 O.2   296  LYS296     -0.2864
    111  CB        39.9440   -2.7160    6.9850 C.3   296  LYS296      0.0298
    112  CG        39.6680   -1.5580    6.0290 C.3   296  LYS296      0.0038
    113  CD        38.3630   -0.8420    6.3450 C.3   296  LYS296      0.0206
    114  CE        37.9770    0.0960    5.2140 C.3   296  LYS296      0.1093
    115  NZ        36.6640    0.7650    5.4470 N.3   296  LYS296     -0.1314
    116  N         39.8110   -4.3120    1.3360 N.3   298  THR298     -0.1204
    117  CA        39.1870   -3.3540    0.4290 C.3   298  THR298      0.1979
    118  C         37.6610   -3.3750    0.5550 C.2   298  THR298      0.2460
    119  O         37.0380   -4.4360    0.4960 O.2   298  THR298     -0.2732
    120  CB        39.5690   -3.6730   -1.0220 C.3   298  THR298      0.1783
    121  OG1       40.9910   -3.8250   -1.1140 O.3   298  THR298     -0.2211
    122  CG2       39.1250   -2.5610   -1.9450 C.3   298  THR298      0.0376
    123  N         37.0380   -2.1950    0.7280 N.am  299  PRO299     -0.2717
    124  CA        35.5820   -2.0640    0.8650 C.3   299  PRO299      0.1535
    125  C         34.7480   -2.5770   -0.3150 C.2   299  PRO299      0.2599
    126  O         33.7590   -3.2870   -0.1210 O.2   299  PRO299     -0.2715
    127  CB        35.3890   -0.5630    1.0780 C.3   299  PRO299      0.0310
    128  CG        36.6450   -0.1560    1.7560 C.3   299  PRO299      0.0237
    129  CD        37.6980   -0.9020    0.9750 C.3   299  PRO299      0.0939
    130  N         35.1370   -2.2130   -1.5330 N.am  300  SER300     -0.1950
    131  CA        34.3820   -2.6330   -2.7110 C.3   300  SER300      0.1924
    132  C         34.6910   -4.0500   -3.1650 C.2   300  SER300      0.2314
    133  O         35.8360   -4.3860   -3.4690 O.2   300  SER300     -0.2863
    134  CB        34.6140   -1.6700   -3.8820 C.3   300  SER300      0.2116
    135  OG        34.1340   -0.3690   -3.5790 O.3   300  SER300     -0.2180
    136  N         38.0280   -4.9430   -8.7540 N.3   323  HIS323     -0.1226
    137  CA        38.3550   -4.0540   -7.6470 C.3   323  HIS323      0.1752
    138  C         39.7040   -4.4280   -7.0450 C.2   323  HIS323      0.2596
    139  O         40.2000   -5.5380   -7.2510 O.2   323  HIS323     -0.2718
    140  CB        37.2740   -4.1350   -6.5660 C.3   323  HIS323      0.0759
    141  CG        35.9070   -3.7660   -7.0490 C.ar  323  HIS323      0.0818
    142  ND1       35.6150   -2.5280   -7.5800 N.ar  323  HIS323     -0.2268
    143  CD2       34.7500   -4.4690   -7.0750 C.ar  323  HIS323      0.1154
    144  CE1       34.3360   -2.4840   -7.9110 C.ar  323  HIS323      0.1986
    145  NE2       33.7890   -3.6490   -7.6150 N.ar  323  HIS323     -0.2212
    146  N         40.2970   -3.4970   -6.3050 N.am  324  ASP324     -0.1974
    147  CA        41.5820   -3.7430   -5.6650 C.3   324  ASP324      0.1709
    148  C         41.3660   -4.8010   -4.5870 C.2   324  ASP324      0.2293
    149  O         40.6260   -4.5820   -3.6320 O.2   324  ASP324     -0.2864
    150  CB        42.1080   -2.4580   -5.0220 C.3   324  ASP324      0.1436
    151  CG        43.5730   -2.5520   -4.6440 C.2   324  ASP324      0.3671
    152  OD1       43.9960   -3.6120   -4.1340 O.co2 324  ASP324     -0.2456
    153  OD2       44.3010   -1.5570   -4.8500 O.co2 324  ASP324     -0.2456
    154  N         44.1920   -3.1910   -0.6290 N.3   327  ILE327     -0.1245
    155  CA        44.6720   -1.8110   -0.6180 C.3   327  ILE327      0.1561
    156  C         45.9550   -1.5770    0.1750 C.2   327  ILE327      0.2260
    157  O         46.6180   -0.5560   -0.0100 O.2   327  ILE327     -0.2867
    158  CB        43.5930   -0.8520   -0.0900 C.3   327  ILE327      0.0252
    159  CG1       43.0990   -1.3230    1.2810 C.3   327  ILE327      0.0019
    160  CG2       42.4640   -0.7570   -1.1030 C.3   327  ILE327      0.0019
    161  CD1       42.0050   -0.4580    1.8870 C.3   327  ILE327      0.0001
    162  N         49.1470   -0.7840   -2.2180 N.3   330  ARG330     -0.1231
    163  CA        49.3440    0.5960   -2.6510 C.3   330  ARG330      0.1694
    164  C         49.4500    1.5050   -1.4160 C.2   330  ARG330      0.2592
    165  O         50.1640    2.5090   -1.4270 O.2   330  ARG330     -0.2718
    166  CB        48.1900    1.0290   -3.5620 C.3   330  ARG330      0.0321
    167  CG        48.1040    0.1990   -4.8440 C.3   330  ARG330      0.0489
    168  CD        46.8200    0.4280   -5.6410 C.3   330  ARG330      0.2205
    169  NE        46.9050    1.5560   -6.5640 N.pl3 330  ARG330     -0.0865
    170  CZ        46.8400    2.8330   -6.2030 C.cat 330  ARG330      0.5346
    171  NH1       46.9280    3.7880   -7.1200 N.pl3 330  ARG330      0.1354
    172  NH2       46.6770    3.1580   -4.9270 N.pl3 330  ARG330      0.1354
    173  N         48.7580    1.1250   -0.3440 N.am  331  GLY331     -0.1957
    174  CA        48.7960    1.9070    0.8800 C.3   331  GLY331      0.1869
    175  C         50.1820    1.9940    1.4990 C.2   331  GLY331      0.2309
    176  O         50.5370    3.0070    2.1150 O.2   331  GLY331     -0.2863
    177  N         52.0280    4.9130    0.1270 N.3   334  VAL334     -0.1245
    178  CA        51.5060    6.1790    0.6260 C.3   334  VAL334      0.1561
    179  C         51.9990    6.4180    2.0540 C.2   334  VAL334      0.2260
    180  O         52.3530    7.5380    2.4150 O.2   334  VAL334     -0.2867
    181  CB        49.9600    6.1950    0.5980 C.3   334  VAL334      0.0252
    182  CG1       49.4460    7.5740    0.9970 C.3   334  VAL334      0.0019
    183  CG2       49.4610    5.8270   -0.8000 C.3   334  VAL334      0.0019
@<TRIPOS>BOND
     1   136   137    1
     2    22    23    1
     3   144   145   ar
     4   144   142   ar
     5   137   138    1
     6   137   140    1
     7   145   143   ar
     8   142   141   ar
     9    23    24    1
    10   139   138    2
    11   171   170    1
    12   143   141   ar
    13   141   140    1
    14   138   146   am
    15   169   170    2
    16   169   168    1
    17   146   147    1
    18    26    24   am
    19    26    27    1
    20   170   172    1
    21    24    25    2
    22    53    50    1
    23   147   150    1
    24   147   148    1
    25   168   167    1
    26    52    51    2
    27    51    50    1
    28    27    28    1
    29    27    30    1
    30   150   151    1
    31    50    49    1
    32    29    28    2
    33   153   151   ar
    34   167   166    1
    35   151   152   ar
    36   148   149    2
    37    28    37   am
    38    46    45    2
    39    30    31    1
    40   134   135    1
    41   134   131    1
    42    56    57    2
    43    56    55    1
    44    49    45   am
    45   166   163    1
    46   133   132    2
    47    45    44    1
    48    31    32    1
    49   132   131    1
    50    37    38    1
    51    58    55    1
    52    58    59    1
    53    40    39    2
    54    54    55    1
    55   131   130    1
    56   163   162    1
    57   163   164    1
    58    39    38    1
    59    39    43   am
    60    38    41    1
    61    32    33    1
    62   122   120    1
    63    44    43    1
    64    44    47    1
    65    16    15   ar
    66    16    14   ar
    67   130   125   am
    68   165   164    2
    69   164   173   am
    70    33    34    2
    71    47    48    1
    72   121   120    1
    73   160   158    1
    74    15    13   ar
    75   120   117    1
    76    14    12   ar
    77   183   181    1
    78    41    42    1
    79   154   155    1
    80   155   158    1
    81   155   156    1
    82   173   174    1
    83   125   126    2
    84   125   124    1
    85    34    36    1
    86    34    35    1
    87    13    12   ar
    88   158   159    1
    89    12    11    1
    90   157   156    2
    91   177   178    1
    92   117   118    1
    93   117   116    1
    94   119   118    2
    95   118   123   am
    96   181   178    1
    97   181   182    1
    98   178   179    1
    99   123   124    1
   100   123   129    1
   101   124   127    1
   102   174   175    1
   103    11     8    1
   104   129   128    1
   105   127   128    1
   106   159   161    1
   107   175   176    2
   108   179   180    2
   109     8     7    1
   110     8     9    1
   111    74    73    2
   112    17     9   am
   113    17    18    1
   114    67    65    1
   115    19    20    2
   116    19    18    1
   117    72    73    1
   118    72    69    1
   119     7     3   am
   120     9    10    2
   121    73    75   am
   122    21    18    1
   123    71    70    2
   124     4     3    2
   125     3     2    1
   126    66    65    1
   127    65    64    1
   128   105   103   ar
   129   105   106   ar
   130     5     2    1
   131     5     6    1
   132   103   101   ar
   133     1     2    1
   134   110   109    2
   135    69    70    1
   136    69    68    1
   137    70    76   am
   138   106   104   ar
   139    68    62   am
   140   101   100    1
   141   101   102   ar
   142   104   102   ar
   143   100    97    1
   144   109   108    1
   145    76    77    1
   146   114   115    1
   147   114   113    1
   148    77    78    1
   149    64    61    1
   150    62    61    1
   151    62    63    2
   152    61    60    1
   153   112   113    1
   154   112   111    1
   155    78    79    2
   156    78    80   am
   157    97    98    1
   158    97    96    1
   159   108   107    1
   160   108   111    1
   161    99    98    2
   162    98   107   am
   163    80    81    1
   164    86    84    1
   165    81    84    1
   166    81    82    1
   167    84    85    1
   168    82    83    2
   169    82    87   am
   170    93    92    1
   171    93    94    1
   172    92    91    1
   173    87    88    1
   174    95    94    1
   175    91    88    1
   176    88    89    1
   177    89    90    2
