@<TRIPOS>MOLECULE
tmp/1um2B00.pdb
 164 158 0 0 0
SMALL
GASTEIGER

@<TRIPOS>ATOM
      1  N         11.9880   23.0960    5.6250 N.3     1  SER1       -0.1202
      2  CA        12.4000   23.0030    4.2360 C.3     1  SER1        0.2020
      3  C         13.3870   24.1240    3.9340 C.2     1  SER1        0.2618
      4  O         13.2130   25.2610    4.3580 O.2     1  SER1       -0.2717
      5  CB        11.1810   23.0630    3.3390 C.3     1  SER1        0.2103
      6  OG        10.2260   22.1220    3.7820 O.3     1  SER1       -0.2182
      7  N         14.4330   23.7770    3.2000 N.am    2  PHE2       -0.1975
      8  CA        15.5060   24.6980    2.8950 C.3     2  PHE2        0.1639
      9  C         15.9370   24.5440    1.4500 C.2     2  PHE2        0.2290
     10  O         15.4440   23.6730    0.7410 O.2     2  PHE2       -0.2864
     11  CB        16.7200   24.3800    3.7810 C.3     2  PHE2        0.0560
     12  CG        16.3870   23.5910    5.0020 C.ar    2  PHE2       -0.0200
     13  CD1       15.7460   22.3590    4.8950 C.ar    2  PHE2       -0.0042
     14  CD2       16.6580   24.1070    6.2680 C.ar    2  PHE2       -0.0042
     15  CE1       15.3690   21.6610    6.0160 C.ar    2  PHE2       -0.0003
     16  CE2       16.2910   23.4220    7.4050 C.ar    2  PHE2       -0.0003
     17  CZ        15.6400   22.1950    7.2860 C.ar    2  PHE2       -0.0000
     18  N          9.2320   11.6720    5.1070 N.3    39  LYS39      -0.1245
     19  CA         8.4450   12.3790    4.0880 C.3    39  LYS39       0.1561
     20  C          9.2620   13.5580    3.5710 C.2    39  LYS39       0.2260
     21  O          9.7940   14.3240    4.3590 O.2    39  LYS39      -0.2867
     22  CB         7.0990   12.8370    4.6640 C.3    39  LYS39       0.0271
     23  CG         6.1070   13.3450    3.6080 C.3    39  LYS39       0.0035
     24  CD         4.6520   12.9090    3.9000 C.3    39  LYS39       0.0206
     25  CE         3.6510   13.4740    2.8610 C.3    39  LYS39       0.1093
     26  NZ         2.2560   12.8930    2.9400 N.3    39  LYS39      -0.1314
     27  N          8.8350   16.8280    1.9750 N.3    41  PRO41      -0.2102
     28  CA         8.0880   17.9850    1.4710 C.3    41  PRO41       0.1504
     29  C          8.7840   18.7200    0.3240 C.2    41  PRO41       0.2575
     30  O          9.9700   19.0310    0.3900 O.2    41  PRO41      -0.2718
     31  CB         7.9170   18.8540    2.7170 C.3    41  PRO41       0.0282
     32  CG         7.8560   17.8440    3.8160 C.3    41  PRO41       0.0208
     33  CD         8.9770   16.9020    3.4390 C.3    41  PRO41       0.0893
     34  N          8.0380   18.9800   -0.7400 N.am   42  ARG42      -0.1980
     35  CA         8.6050   19.6730   -1.8770 C.3    42  ARG42       0.1597
     36  C          7.6800   20.7730   -2.3280 C.2    42  ARG42       0.2287
     37  O          6.4570   20.6570   -2.2230 O.2    42  ARG42      -0.2864
     38  CB         8.8320   18.7010   -3.0160 C.3    42  ARG42       0.0334
     39  CG         9.9300   17.6900   -2.7670 C.3    42  ARG42       0.0492
     40  CD        11.3090   18.2740   -3.0320 C.3    42  ARG42       0.2205
     41  NE        12.3090   17.2210   -2.9170 N.pl3  42  ARG42      -0.0865
     42  CZ        12.4800   16.4930   -1.8180 C.cat  42  ARG42       0.5346
     43  NH1       11.7140   16.7140   -0.7510 N.pl3  42  ARG42       0.1354
     44  NH2       13.4160   15.5470   -1.7790 N.pl3  42  ARG42       0.1354
     45  N          8.6890   28.4590   -2.4300 N.3    45  GLU45      -0.1245
     46  CA         8.2800   29.4590   -1.4560 C.3    45  GLU45       0.1567
     47  C          9.4020   30.4630   -1.4520 C.2    45  GLU45       0.2260
     48  O         10.4020   30.2510   -2.1380 O.2    45  GLU45      -0.2867
     49  CB         8.1770   28.7980   -0.0970 C.3    45  GLU45       0.0388
     50  CG         7.2360   29.4380    0.8520 C.3    45  GLU45       0.1160
     51  CD         6.6080   28.4180    1.7760 C.2    45  GLU45       0.3649
     52  OE1        6.0710   28.8210    2.8180 O.co2  45  GLU45      -0.2457
     53  OE2        6.6370   27.2060    1.4670 O.co2  45  GLU45      -0.2457
     54  N         12.8970   28.2290    3.3740 N.3    61  ASN61      -0.1240
     55  CA        11.6260   28.8150    2.9790 C.3    61  ASN61       0.1653
     56  C         11.0250   29.7000    4.0990 C.2    61  ASN61       0.2266
     57  O         11.0570   29.3650    5.2880 O.2    61  ASN61      -0.2867
     58  CB        10.6490   27.6940    2.6160 C.3    61  ASN61       0.1155
     59  CG        10.2150   26.8780    3.8290 C.2    61  ASN61       0.2627
     60  OD1        9.8670   27.4280    4.8760 O.2    61  ASN61      -0.2716
     61  ND2       10.2150   25.5680    3.6890 N.am   61  ASN61      -0.0877
     62  N          8.3920   30.0650    5.4830 N.3    63  THR63      -0.1203
     63  CA         7.5630   29.4150    6.4730 C.3    63  THR63       0.1994
     64  C          8.3100   28.4520    7.4320 C.2    63  THR63       0.2618
     65  O          7.7030   27.7990    8.2860 O.2    63  THR63      -0.2717
     66  CB         6.3910   28.7200    5.7320 C.3    63  THR63       0.1784
     67  OG1        5.3060   28.5300    6.6420 O.3    63  THR63      -0.2211
     68  CG2        6.8260   27.3850    5.1240 C.3    63  THR63       0.0376
     69  N          9.6340   28.4050    7.2970 N.am   64  ASN64      -0.1960
     70  CA        10.5020   27.5430    8.1130 C.3    64  ASN64       0.1819
     71  C         10.6700   28.0020    9.5700 C.2    64  ASN64       0.2621
     72  O         11.0600   29.1430    9.8260 O.2    64  ASN64      -0.2715
     73  CB        11.8810   27.4510    7.4450 C.3    64  ASN64       0.1195
     74  CG        12.8750   26.6600    8.2610 C.2    64  ASN64       0.2630
     75  OD1       14.0320   27.0430    8.3580 O.2    64  ASN64      -0.2716
     76  ND2       12.4310   25.5460    8.8450 N.am   64  ASN64      -0.0877
     77  N         10.4100   27.1030   10.5180 N.am   65  GLU65      -0.1977
     78  CA        10.5210   27.4380   11.9420 C.3    65  GLU65       0.1602
     79  C         11.9380   27.4790   12.5140 C.2    65  GLU65       0.2287
     80  O         12.4890   26.4320   12.8760 O.2    65  GLU65      -0.2864
     81  CB         9.7040   26.4530   12.7860 C.3    65  GLU65       0.0415
     82  CG         8.2270   26.5180   12.5290 C.3    65  GLU65       0.1163
     83  CD         7.5150   25.2810   13.0030 C.2    65  GLU65       0.3649
     84  OE1        7.5400   25.0190   14.2260 O.co2  65  GLU65      -0.2457
     85  OE2        6.9340   24.5680   12.1440 O.co2  65  GLU65      -0.2457
     86  N          8.9910   30.9470   12.6920 N.3   145  GLU145     -0.1245
     87  CA         9.2220   30.9770   11.2540 C.3   145  GLU145      0.1567
     88  C         10.0680   32.1560   10.8280 C.2   145  GLU145      0.2260
     89  O          9.9390   33.2740   11.3470 O.2   145  GLU145     -0.2867
     90  CB         7.9160   31.0340   10.4930 C.3   145  GLU145      0.0388
     91  CG         6.8440   30.1290   11.0190 C.3   145  GLU145      0.1160
     92  CD         5.7220   29.9340   10.0020 C.2   145  GLU145      0.3649
     93  OE1        5.5560   30.8040    9.1030 O.co2 145  GLU145     -0.2457
     94  OE2        5.0010   28.9120   10.1140 O.co2 145  GLU145     -0.2457
     95  N         12.4530   24.4010   -2.7800 N.3   396  TYR396     -0.1241
     96  CA        12.7250   24.0650   -1.3830 C.3   396  TYR396      0.1605
     97  C         12.6430   22.5690   -1.1200 C.2   396  TYR396      0.2264
     98  O         11.8370   21.8700   -1.7030 O.2   396  TYR396     -0.2867
     99  CB        11.7890   24.8360   -0.4350 C.3   396  TYR396      0.0534
    100  CG        10.3670   24.3030   -0.2560 C.ar  396  TYR396     -0.0201
    101  CD1       10.1380   22.9960    0.1790 C.ar  396  TYR396     -0.0009
    102  CD2        9.2590   25.1480   -0.4160 C.ar  396  TYR396     -0.0009
    103  CE1        8.8620   22.5410    0.4580 C.ar  396  TYR396      0.0417
    104  CE2        7.9710   24.7030   -0.1380 C.ar  396  TYR396      0.0417
    105  CZ         7.7730   23.3900    0.3040 C.ar  396  TYR396      0.1957
    106  OH         6.5000   22.9140    0.6020 O.3   396  TYR396     -0.2866
    107  N         12.7120   19.5290    2.0190 N.3   398  GLY398     -0.1210
    108  CA        12.6020   19.2680    3.4330 C.3   398  GLY398      0.1956
    109  C         12.6430   17.7890    3.7280 C.2   398  GLY398      0.2612
    110  O         12.8210   16.9770    2.8320 O.2   398  GLY398     -0.2717
    111  N         12.5080   17.4540    5.0040 N.am  399  ILE399     -0.1965
    112  CA        12.4930   16.0880    5.4670 C.3   399  ILE399      0.1727
    113  C         11.5800   16.2200    6.6550 C.2   399  ILE399      0.2616
    114  O         11.5100   17.2770    7.2590 O.2   399  ILE399     -0.2715
    115  CB        13.8790   15.6310    5.9150 C.3   399  ILE399      0.0290
    116  CG1       14.1000   15.9640    7.3810 C.3   399  ILE399      0.0022
    117  CG2       14.9470   16.3660    5.1220 C.3   399  ILE399      0.0023
    118  CD1       15.5210   15.7240    7.8540 C.3   399  ILE399      0.0001
    119  N         10.8780   15.1580    6.9920 N.am  400  THR400     -0.1951
    120  CA         9.9500   15.1820    8.1000 C.3   400  THR400      0.1897
    121  C         10.2510   14.0410    9.0470 C.2   400  THR400      0.2313
    122  O         10.2830   12.8950    8.6240 O.2   400  THR400     -0.2863
    123  CB         8.5420   15.0040    7.5720 C.3   400  THR400      0.1794
    124  OG1        8.1560   16.1890    6.8680 O.3   400  THR400     -0.2208
    125  CG2        7.5540   14.6710    8.7100 C.3   400  THR400      0.0378
    126  N         11.3830   16.3090   16.6270 N.3   407  HIS407     -0.1241
    127  CA        11.2930   17.0840   15.4000 C.3   407  HIS407      0.1621
    128  C         12.4500   17.9890   15.0420 C.2   407  HIS407      0.2264
    129  O         12.3600   18.7590   14.0860 O.2   407  HIS407     -0.2867
    130  CB        10.0120   17.9170   15.4340 C.3   407  HIS407      0.0745
    131  CG         8.7760   17.1230   15.1420 C.ar  407  HIS407      0.0817
    132  ND1        8.1430   17.1590   13.9170 N.ar  407  HIS407     -0.2268
    133  CD2        8.0990   16.2230   15.8910 C.ar  407  HIS407      0.1154
    134  CE1        7.1310   16.3120   13.9240 C.ar  407  HIS407      0.1986
    135  NE2        7.0830   15.7300   15.1100 N.ar  407  HIS407     -0.2212
    136  N         16.6870   18.2800   14.2470 N.3   409  PHE409     -0.1241
    137  CA        17.8100   17.4740   13.7900 C.3   409  PHE409      0.1605
    138  C         18.9810   18.4080   13.4530 C.2   409  PHE409      0.2264
    139  O         18.7810   19.6170   13.2680 O.2   409  PHE409     -0.2867
    140  CB        17.4150   16.5760   12.5910 C.3   409  PHE409      0.0534
    141  CG        17.1980   17.3110   11.3060 C.ar  409  PHE409     -0.0203
    142  CD1       15.9240   17.7580   10.9470 C.ar  409  PHE409     -0.0042
    143  CD2       18.2730   17.5720   10.4480 C.ar  409  PHE409     -0.0042
    144  CE1       15.7300   18.4470    9.7610 C.ar  409  PHE409     -0.0003
    145  CE2       18.0860   18.2680    9.2500 C.ar  409  PHE409     -0.0003
    146  CZ        16.8250   18.7030    8.9070 C.ar  409  PHE409     -0.0000
    147  N         14.6030   22.6920   12.7150 N.3   418  HIS418     -0.1226
    148  CA        13.3700   21.9950   13.0190 C.3   418  HIS418      0.1752
    149  C         12.7120   21.5510   11.7380 C.2   418  HIS418      0.2596
    150  O         12.7350   22.2700   10.7560 O.2   418  HIS418     -0.2718
    151  CB        12.4860   22.9840   13.7860 C.3   418  HIS418      0.0759
    152  CG        11.0680   22.5550   13.9280 C.ar  418  HIS418      0.0818
    153  ND1       10.1490   22.6820   12.9100 N.ar  418  HIS418     -0.2268
    154  CD2       10.4220   21.9560   14.9530 C.ar  418  HIS418      0.1154
    155  CE1        8.9960   22.1750   13.3040 C.ar  418  HIS418      0.1986
    156  NE2        9.1350   21.7270   14.5410 N.ar  418  HIS418     -0.2212
    157  N         12.1340   20.3670   11.7030 N.am  419  ASN419     -0.1974
    158  CA        11.5140   19.9740   10.4490 C.3   419  ASN419      0.1688
    159  C         10.2690   20.8030   10.2640 C.2   419  ASN419      0.2292
    160  O          9.1690   20.2520   10.2360 O.2   419  ASN419     -0.2864
    161  CB        11.1280   18.5010   10.4490 C.3   419  ASN419      0.1181
    162  CG        10.2410   18.1380   11.6080 C.2   419  ASN419      0.2629
    163  OD1        9.6130   17.0940   11.6150 O.2   419  ASN419     -0.2716
    164  ND2       10.1940   19.0050   12.6070 N.am  419  ASN419     -0.0877
@<TRIPOS>BOND
     1    40    41    1
     2    40    39    1
     3    38    39    1
     4    38    35    1
     5    41    42    2
     6    95    96    1
     7    45    46    1
     8    36    37    2
     9    36    35    1
    10    48    47    2
    11    35    34    1
    12    42    44    1
    13    42    43    1
    14    98    97    2
    15    46    47    1
    16    46    49    1
    17    96    97    1
    18    96    99    1
    19    34    29   am
    20    99   100    1
    21   102   100   ar
    22   102   104   ar
    23   100   101   ar
    24   104   105   ar
    25    49    50    1
    26   101   103   ar
    27   105   103   ar
    28   105   106    1
    29    29    30    2
    30    29    28    1
    31    10     9    2
    32    50    51    1
    33     9     8    1
    34    53    51   ar
    35    28    27    1
    36    28    31    1
    37    51    52   ar
    38    27    33    1
    39   107   108    1
    40    58    55    1
    41    58    59    1
    42    31    32    1
    43   110   109    2
    44    25    26    1
    45    25    24    1
    46     8     7    1
    47     8    11    1
    48    55    54    1
    49    55    56    1
    50     7     3   am
    51     5     6    1
    52     5     2    1
    53   108   109    1
    54    33    32    1
    55    20    19    1
    56    20    21    2
    57    23    24    1
    58    23    22    1
    59    61    59   am
    60   109   111   am
    61    11    12    1
    62    59    60    2
    63     3     2    1
    64     3     4    2
    65    19    22    1
    66    19    18    1
    67    56    57    2
    68     2     1    1
    69    13    12   ar
    70    13    15   ar
    71    12    14   ar
    72   111   112    1
    73   117   115    1
    74    68    66    1
    75   112   115    1
    76   112   113    1
    77    62    63    1
    78    66    63    1
    79    66    67    1
    80   115   116    1
    81    15    17   ar
    82    14    16   ar
    83    63    64    1
    84   113   119   am
    85   113   114    2
    86   124   123    1
    87   119   120    1
    88    17    16   ar
    89    69    64   am
    90    69    70    1
    91   116   118    1
    92    64    65    2
    93    73    70    1
    94    73    74    1
    95   123   120    1
    96   123   125    1
    97   120   121    1
    98    70    71    1
    99    74    75    2
   100    74    76   am
   101   122   121    2
   102   146   145   ar
   103   146   144   ar
   104    93    92   ar
   105   145   143   ar
   106    71    72    2
   107    71    77   am
   108   144   142   ar
   109    92    94   ar
   110    92    91    1
   111   160   159    2
   112   159   158    1
   113   143   141   ar
   114   161   158    1
   115   161   162    1
   116   158   157    1
   117    90    91    1
   118    90    87    1
   119    77    78    1
   120   150   149    2
   121    88    87    1
   122    88    89    2
   123   142   141   ar
   124    87    86    1
   125   141   140    1
   126   162   163    2
   127   162   164   am
   128   157   149   am
   129   149   148    1
   130    78    79    1
   131    78    81    1
   132    85    83   ar
   133    79    80    2
   134    82    81    1
   135    82    83    1
   136   140   137    1
   137   147   148    1
   138   153   155   ar
   139   153   152   ar
   140    83    84   ar
   141   148   151    1
   142   139   138    2
   143   155   156   ar
   144   138   137    1
   145   151   152    1
   146   137   136    1
   147   132   134   ar
   148   132   131   ar
   149   134   135   ar
   150   152   154   ar
   151   129   128    2
   152   156   154   ar
   153   128   127    1
   154   135   133   ar
   155   131   130    1
   156   131   133   ar
   157   127   130    1
   158   127   126    1
