@<TRIPOS>MOLECULE
tmp/1um4B00.pdb
 100 97 0 0 0
SMALL
GASTEIGER

@<TRIPOS>ATOM
      1  N         12.4120   17.5370   55.0210 N.3    32  LEU32      -0.1245
      2  CA        12.3570   18.9840   54.9090 C.3    32  LEU32       0.1561
      3  C         12.1960   19.3030   53.4210 C.2    32  LEU32       0.2260
      4  O         12.8050   18.6440   52.5800 O.2    32  LEU32      -0.2867
      5  CB        13.6540   19.5990   55.4410 C.3    32  LEU32       0.0270
      6  CG        13.7310   21.1240   55.4520 C.3    32  LEU32       0.0019
      7  CD1       12.6210   21.6750   56.3200 C.3    32  LEU32       0.0001
      8  CD2       15.0800   21.5690   55.9740 C.3    32  LEU32       0.0001
      9  N         12.7850   22.0280   50.5280 N.3    34  GLN34      -0.1245
     10  CA        13.4880   23.2480   50.1590 C.3    34  GLN34       0.1566
     11  C         12.9080   23.7290   48.8410 C.2    34  GLN34       0.2260
     12  O         12.6320   22.9240   47.9440 O.2    34  GLN34      -0.2867
     13  CB        14.9740   22.9660   49.9730 C.3    34  GLN34       0.0367
     14  CG        15.6870   22.4790   51.2130 C.3    34  GLN34       0.0905
     15  CD        15.9430   23.5950   52.2040 C.2    34  GLN34       0.2608
     16  OE1       15.4660   24.7180   52.0330 O.2    34  GLN34      -0.2717
     17  NE2       16.7000   23.2900   53.2460 N.am   34  GLN34      -0.0878
     18  N         13.3080   26.3580   45.5300 N.3    36  VAL36      -0.1245
     19  CA        14.2900   27.0940   44.7550 C.3    36  VAL36       0.1561
     20  C         13.6610   27.7280   43.5290 C.2    36  VAL36       0.2260
     21  O         12.8010   27.1360   42.8790 O.2    36  VAL36      -0.2867
     22  CB        15.4250   26.1410   44.3110 C.3    36  VAL36       0.0252
     23  CG1       16.3930   26.8540   43.3920 C.3    36  VAL36       0.0019
     24  CG2       16.1480   25.6050   45.5370 C.3    36  VAL36       0.0019
     25  N         17.6170   30.3320   46.3790 N.3    46  TRP46      -0.1241
     26  CA        16.8950   29.6500   47.4360 C.3    46  TRP46       0.1605
     27  C         15.7170   30.5150   47.8650 C.2    46  TRP46       0.2264
     28  O         15.8670   31.7200   48.0670 O.2    46  TRP46      -0.2867
     29  CB        17.8100   29.4060   48.6280 C.3    46  TRP46       0.0550
     30  CG        17.1180   28.7500   49.7840 C.ar   46  TRP46       0.0003
     31  CD1       16.6370   27.4730   49.8390 C.ar   46  TRP46       0.0946
     32  CD2       16.8330   29.3420   51.0530 C.ar   46  TRP46       0.0152
     33  NE1       16.0710   27.2320   51.0680 N.ar   46  TRP46      -0.2442
     34  CE2       16.1790   28.3640   51.8340 C.ar   46  TRP46       0.0810
     35  CE3       17.0660   30.6070   51.6080 C.ar   46  TRP46       0.0012
     36  CZ2       15.7570   28.6110   53.1400 C.ar   46  TRP46       0.0191
     37  CZ3       16.6440   30.8540   52.9110 C.ar   46  TRP46       0.0001
     38  CH2       15.9960   29.8590   53.6610 C.ar   46  TRP46       0.0015
     39  N          9.1760   22.6390   57.0800 N.3    51  TYR51      -0.1241
     40  CA         9.4150   21.3650   57.7450 C.3    51  TYR51       0.1605
     41  C          8.0530   20.9360   58.2820 C.2    51  TYR51       0.2264
     42  O          7.6880   21.2810   59.4000 O.2    51  TYR51      -0.2867
     43  CB        10.3980   21.5530   58.9010 C.3    51  TYR51       0.0534
     44  CG        10.8440   20.2640   59.5510 C.ar   51  TYR51      -0.0201
     45  CD1       11.2810   20.2470   60.8740 C.ar   51  TYR51      -0.0009
     46  CD2       10.8450   19.0640   58.8420 C.ar   51  TYR51      -0.0009
     47  CE1       11.7070   19.0660   61.4780 C.ar   51  TYR51       0.0417
     48  CE2       11.2710   17.8760   59.4370 C.ar   51  TYR51       0.0417
     49  CZ        11.6980   17.8860   60.7540 C.ar   51  TYR51       0.1957
     50  OH        12.1050   16.7140   61.3520 O.3    51  TYR51      -0.2866
     51  N         12.8470   20.5640   46.6510 N.3    96  ALA96      -0.1245
     52  CA        13.7820   19.4750   46.8530 C.3    96  ALA96       0.1562
     53  C         13.4470   18.9100   48.2150 C.2    96  ALA96       0.2260
     54  O         13.1080   19.6570   49.1310 O.2    96  ALA96      -0.2867
     55  CB        15.2070   19.9950   46.8270 C.3    96  ALA96       0.0290
     56  N         14.7300   16.8610   51.5230 N.3    98  SER98      -0.1202
     57  CA        16.0050   16.5360   52.1270 C.3    98  SER98       0.2020
     58  C         15.9540   16.4520   53.6320 C.2    98  SER98       0.2619
     59  O         14.9190   16.6940   54.2590 O.2    98  SER98      -0.2717
     60  CB        17.0900   17.5320   51.6950 C.3    98  SER98       0.2103
     61  OG        16.9460   18.7980   52.2990 O.3    98  SER98      -0.2182
     62  N         17.0920   16.0830   54.1970 N.am   99  SER99      -0.1937
     63  CA        17.2420   15.9330   55.6270 C.3    99  SER99       0.2055
     64  C         18.7030   16.2030   55.9350 C.2    99  SER99       0.2642
     65  O         19.5350   16.2810   55.0280 O.2    99  SER99      -0.2714
     66  CB        16.8680   14.5150   56.0440 C.3    99  SER99       0.2130
     67  OG        17.6460   13.5710   55.3310 O.3    99  SER99      -0.2179
     68  N         19.0110   16.3570   57.2150 N.am  100  MET100     -0.1976
     69  CA        20.3720   16.6300   57.6380 C.3   100  MET100      0.1605
     70  C         21.3410   15.5550   57.1560 C.2   100  MET100      0.2287
     71  O         22.4540   15.8600   56.7340 O.2   100  MET100     -0.2864
     72  CB        20.4210   16.7340   59.1630 C.3   100  MET100      0.0413
     73  CG        21.7820   17.0790   59.7320 C.3   100  MET100      0.0598
     74  SD        21.7160   17.2460   61.5290 S.3   100  MET100     -0.1393
     75  CE        21.8010   15.5240   62.0270 C.3   100  MET100      0.0692
     76  N         21.0040   15.5340   52.4840 N.3   103  PRO103     -0.2102
     77  CA        20.7420   16.8590   51.9050 C.3   103  PRO103      0.1504
     78  C         20.3830   16.8960   50.4250 C.2   103  PRO103      0.2576
     79  O         21.0330   16.2540   49.6050 O.2   103  PRO103     -0.2718
     80  CB        22.0310   17.6230   52.2020 C.3   103  PRO103      0.0282
     81  CG        23.0670   16.5520   52.1810 C.3   103  PRO103      0.0208
     82  CD        22.3950   15.4530   52.9650 C.3   103  PRO103      0.0893
     83  N         19.3540   17.6750   50.0970 N.am  104  GLY104     -0.1957
     84  CA        18.9060   17.8050   48.7200 C.3   104  GLY104      0.1869
     85  C         18.9550   16.4960   47.9660 C.2   104  GLY104      0.2309
     86  O         19.4770   16.4290   46.8500 O.2   104  GLY104     -0.2863
     87  N         14.8970   16.0420   43.7740 N.3   107  TRP107     -0.1241
     88  CA        14.4140   17.2740   43.1700 C.3   107  TRP107      0.1605
     89  C         13.1640   17.0560   42.3470 C.2   107  TRP107      0.2264
     90  O         13.0420   16.0520   41.6490 O.2   107  TRP107     -0.2867
     91  CB        15.4780   17.8650   42.2520 C.3   107  TRP107      0.0550
     92  CG        16.6150   18.4500   42.9800 C.ar  107  TRP107      0.0003
     93  CD1       17.7170   17.7980   43.4570 C.ar  107  TRP107      0.0946
     94  CD2       16.7610   19.8190   43.3550 C.ar  107  TRP107      0.0152
     95  NE1       18.5450   18.6850   44.1080 N.ar  107  TRP107     -0.2442
     96  CE2       17.9800   19.9320   44.0600 C.ar  107  TRP107      0.0810
     97  CE3       15.9790   20.9660   43.1640 C.ar  107  TRP107      0.0012
     98  CZ2       18.4370   21.1500   44.5750 C.ar  107  TRP107      0.0191
     99  CZ3       16.4340   22.1760   43.6780 C.ar  107  TRP107      0.0001
    100  CH2       17.6510   22.2570   44.3750 C.ar  107  TRP107      0.0015
@<TRIPOS>BOND
     1    90    89    2
     2    91    92    1
     3    91    88    1
     4    89    88    1
     5    21    20    2
     6    92    94   ar
     7    92    93   ar
     8    97    94   ar
     9    97    99   ar
    10    88    87    1
    11    94    96   ar
    12    23    22    1
    13    93    95   ar
    14    20    19    1
    15    99   100   ar
    16    96    95   ar
    17    96    98   ar
    18    22    19    1
    19    22    24    1
    20   100    98   ar
    21    19    18    1
    22    25    26    1
    23    51    52    1
    24    55    52    1
    25    86    85    2
    26    52    53    1
    27    26    27    1
    28    26    29    1
    29    27    28    2
    30    12    11    2
    31    85    84    1
    32    53    54    2
    33    29    30    1
    34    84    83    1
    35    11    10    1
    36    79    78    2
    37    30    31   ar
    38    30    32   ar
    39    31    33   ar
    40    13    10    1
    41    13    14    1
    42    83    78   am
    43    10     9    1
    44    78    77    1
    45    32    35   ar
    46    32    34   ar
    47    33    34   ar
    48    14    15    1
    49    56    57    1
    50    35    37   ar
    51    60    57    1
    52    60    61    1
    53    34    36   ar
    54    77    80    1
    55    77    76    1
    56    16    15    2
    57    57    58    1
    58    81    80    1
    59    81    82    1
    60    15    17   am
    61    76    82    1
    62     4     3    2
    63    37    38   ar
    64    36    38   ar
    65     3     2    1
    66    58    62   am
    67    58    59    2
    68    62    63    1
    69     2     1    1
    70     2     5    1
    71    65    64    2
    72    67    66    1
    73     5     6    1
    74     6     8    1
    75     6     7    1
    76    63    64    1
    77    63    66    1
    78    64    68   am
    79    71    70    2
    80    39    40    1
    81    70    69    1
    82    68    69    1
    83    69    72    1
    84    40    41    1
    85    40    43    1
    86    41    42    2
    87    46    48   ar
    88    46    44   ar
    89    43    44    1
    90    72    73    1
    91    48    49   ar
    92    44    45   ar
    93    73    74    1
    94    49    50    1
    95    49    47   ar
    96    45    47   ar
    97    74    75    1
