@<TRIPOS>MOLECULE
tmp/1um8A00.pdb
 137 130 0 0 0
SMALL
GASTEIGER

@<TRIPOS>ATOM
      1  N          9.7670   43.2500   13.8200 N.3    18  TYR18      -0.1227
      2  CA        11.2240   43.2260   13.9030 C.3    18  TYR18       0.1736
      3  C         11.8100   43.0920   15.2980 C.2    18  TYR18       0.2595
      4  O         12.9270   42.5910   15.4680 O.2    18  TYR18      -0.2718
      5  CB        11.7950   44.4690   13.2410 C.3    18  TYR18       0.0548
      6  CG        11.4660   44.5080   11.7800 C.ar   18  TYR18      -0.0200
      7  CD1       10.2110   44.9190   11.3430 C.ar   18  TYR18      -0.0009
      8  CD2       12.3830   44.0610   10.8340 C.ar   18  TYR18      -0.0009
      9  CE1        9.8790   44.8760   10.0010 C.ar   18  TYR18       0.0417
     10  CE2       12.0620   44.0140    9.4950 C.ar   18  TYR18       0.0417
     11  CZ        10.8100   44.4220    9.0820 C.ar   18  TYR18       0.1957
     12  OH        10.4860   44.3730    7.7470 O.3    18  TYR18      -0.2866
     13  N         11.0490   43.5350   16.2910 N.am   19  VAL19      -0.1966
     14  CA        11.4870   43.4980   17.6730 C.3    19  VAL19       0.1727
     15  C         10.6390   42.5070   18.4600 C.2    19  VAL19       0.2616
     16  O          9.4010   42.5870   18.4450 O.2    19  VAL19      -0.2715
     17  CB        11.3520   44.8890   18.2890 C.3    19  VAL19       0.0290
     18  CG1       11.9550   44.9200   19.6850 C.3    19  VAL19       0.0023
     19  CG2       12.0190   45.9060   17.3770 C.3    19  VAL19       0.0023
     20  N         11.3070   41.5650   19.1300 N.am   20  ILE20      -0.1977
     21  CA        10.6280   40.5540   19.9340 C.3    20  ILE20       0.1596
     22  C         10.6380   41.0210   21.3850 C.2    20  ILE20       0.2287
     23  O         11.6170   41.6120   21.8630 O.2    20  ILE20      -0.2864
     24  CB        11.3610   39.1960   19.8440 C.3    20  ILE20       0.0276
     25  CG1       11.3890   38.7230   18.3870 C.3    20  ILE20       0.0022
     26  CG2       10.7040   38.1700   20.7720 C.3    20  ILE20       0.0022
     27  CD1       10.0290   38.5700   17.7650 C.3    20  ILE20       0.0001
     28  N          9.7190   43.2140   24.7560 N.3    22  GLN22      -0.1245
     29  CA         9.7030   44.6490   24.9910 C.3    22  GLN22       0.1566
     30  C          8.3360   45.2440   24.6180 C.2    22  GLN22       0.2260
     31  O          8.2770   46.2650   23.9220 O.2    22  GLN22      -0.2867
     32  CB        10.7880   45.3270   24.1520 C.3    22  GLN22       0.0367
     33  CG        12.0590   44.5190   23.9360 C.3    22  GLN22       0.0905
     34  CD        12.8470   44.2830   25.2070 C.2    22  GLN22       0.2608
     35  OE1       14.0640   44.0590   25.1620 O.2    22  GLN22      -0.2717
     36  NE2       12.1690   44.3160   26.3440 N.am   22  GLN22      -0.0878
     37  N         22.4810   46.1470   26.7940 N.3    77  THR77      -0.1203
     38  CA        22.9910   46.1370   25.4280 C.3    77  THR77       0.1994
     39  C         22.4170   44.9510   24.6650 C.2    77  THR77       0.2618
     40  O         22.3950   43.8350   25.1810 O.2    77  THR77      -0.2717
     41  CB        24.5260   45.9930   25.4000 C.3    77  THR77       0.1784
     42  OG1       25.1410   47.1660   25.9470 O.3    77  THR77      -0.2211
     43  CG2       25.0100   45.7850   23.9780 C.3    77  THR77       0.0376
     44  N         21.9680   45.2010   23.4350 N.am   78  GLY78      -0.1942
     45  CA        21.4030   44.1500   22.6090 C.3    78  GLY78       0.2014
     46  C         19.9470   43.8100   22.8770 C.2    78  GLY78       0.2640
     47  O         19.5310   42.6840   22.6170 O.2    78  GLY78      -0.2714
     48  N         19.1580   44.7580   23.3790 N.am   79  SER79      -0.1935
     49  CA        17.7470   44.4780   23.6540 C.3    79  SER79       0.2055
     50  C         16.7460   44.9890   22.6090 C.2    79  SER79       0.2644
     51  O         15.5820   44.5900   22.6170 O.2    79  SER79      -0.2714
     52  CB        17.3670   45.0030   25.0430 C.3    79  SER79       0.2130
     53  OG        18.0530   46.2000   25.3640 O.3    79  SER79      -0.2179
     54  N         17.2000   45.8540   21.7040 N.am   80  GLY80      -0.1939
     55  CA        16.3130   46.3800   20.6800 C.3    80  GLY80       0.2014
     56  C         16.1530   47.8950   20.7290 C.2    80  GLY80       0.2639
     57  O         15.2870   48.4620   20.0690 O.2    80  GLY80      -0.2714
     58  N         17.0020   48.5590   21.5050 N.am   81  LYS81      -0.1963
     59  CA        16.9200   50.0040   21.6420 C.3    81  LYS81       0.1728
     60  C         17.1140   50.7590   20.3320 C.2    81  LYS81       0.2617
     61  O         16.1680   51.3780   19.8440 O.2    81  LYS81      -0.2715
     62  CB        17.9160   50.4850   22.6990 C.3    81  LYS81       0.0311
     63  CG        17.6080   49.9440   24.0880 C.3    81  LYS81       0.0038
     64  CD        18.4860   50.5850   25.1440 C.3    81  LYS81       0.0206
     65  CE        19.9760   50.3940   24.8510 C.3    81  LYS81       0.1093
     66  NZ        20.3600   48.9580   24.8410 N.3    81  LYS81      -0.1314
     67  N         18.3090   50.7170   19.7460 N.am   82  THR82      -0.1937
     68  CA        18.4930   51.4350   18.4920 C.3    82  THR82       0.2028
     69  C         17.7190   50.7460   17.3650 C.2    82  THR82       0.2642
     70  O         17.4610   51.3420   16.3210 O.2    82  THR82      -0.2714
     71  CB        19.9990   51.5860   18.0890 C.3    82  THR82       0.1808
     72  OG1       20.2340   50.9490   16.8250 O.3    82  THR82      -0.2208
     73  CG2       20.9090   51.0150   19.1390 C.3    82  THR82       0.0379
     74  N         17.3360   49.4970   17.5910 N.am   83  LEU83      -0.1977
     75  CA        16.5740   48.7370   16.6070 C.3    83  LEU83       0.1596
     76  C         15.1690   49.3100   16.4750 C.2    83  LEU83       0.2287
     77  O         14.6480   49.4630   15.3670 O.2    83  LEU83      -0.2864
     78  CB        16.4660   47.2690   17.0170 C.3    83  LEU83       0.0297
     79  CG        15.5750   46.4540   16.0730 C.3    83  LEU83       0.0022
     80  CD1       16.2060   46.4550   14.6850 C.3    83  LEU83       0.0001
     81  CD2       15.3840   45.0240   16.5920 C.3    83  LEU83       0.0001
     82  N         15.5990   52.4910   14.6570 N.3    86  GLN86      -0.1245
     83  CA        15.9200   52.2360   13.2490 C.3    86  GLN86       0.1566
     84  C         14.7100   51.7370   12.4640 C.2    86  GLN86       0.2260
     85  O         14.4660   52.1690   11.3340 O.2    86  GLN86      -0.2867
     86  CB        17.0510   51.2160   13.1390 C.3    86  GLN86       0.0367
     87  CG        18.4280   51.7670   13.4940 C.3    86  GLN86       0.0905
     88  CD        19.4660   50.6560   13.6950 C.2    86  GLN86       0.2608
     89  OE1       20.6730   50.9110   13.7590 O.2    86  GLN86      -0.2717
     90  NE2       18.9910   49.4210   13.8070 N.am   86  GLN86      -0.0878
     91  N         23.6420   57.1200   21.6890 N.3   132  ASP132     -0.1239
     92  CA        23.8040   55.8530   22.4010 C.3   132  ASP132      0.1674
     93  C         24.7680   56.0250   23.5700 C.2   132  ASP132      0.2266
     94  O         25.6940   56.8270   23.5000 O.2   132  ASP132     -0.2867
     95  CB        24.3530   54.7940   21.4520 C.3   132  ASP132      0.1410
     96  CG        24.0710   53.3880   21.9260 C.2   132  ASP132      0.3668
     97  OD1       23.8790   53.1930   23.1470 O.co2 132  ASP132     -0.2456
     98  OD2       24.0490   52.4720   21.0770 O.co2 132  ASP132     -0.2456
     99  N         17.3100   39.9670   26.6970 N.3   232  ILE232     -0.1245
    100  CA        16.7300   38.9110   25.8870 C.3   232  ILE232      0.1561
    101  C         16.8070   37.6140   26.6870 C.2   232  ILE232      0.2260
    102  O         17.8710   37.2170   27.1640 O.2   232  ILE232     -0.2867
    103  CB        17.4850   38.7050   24.5450 C.3   232  ILE232      0.0252
    104  CG1       17.8320   40.0490   23.8980 C.3   232  ILE232      0.0019
    105  CG2       16.6250   37.8780   23.5990 C.3   232  ILE232      0.0019
    106  CD1       16.6470   40.9520   23.6210 C.3   232  ILE232      0.0001
    107  N         13.5180   35.3850   18.1600 N.3   240  ILE240     -0.1245
    108  CA        14.2670   36.2550   17.2600 C.3   240  ILE240      0.1561
    109  C         14.8170   35.5070   16.0430 C.2   240  ILE240      0.2260
    110  O         14.8860   36.0560   14.9390 O.2   240  ILE240     -0.2867
    111  CB        15.4350   36.9130   18.0010 C.3   240  ILE240      0.0252
    112  CG1       14.8920   37.9540   18.9800 C.3   240  ILE240      0.0019
    113  CG2       16.4130   37.5270   17.0120 C.3   240  ILE240      0.0019
    114  CD1       15.9330   38.5480   19.8870 C.3   240  ILE240      0.0001
    115  N         10.6060   37.2010   13.4990 N.3   244  PRO244     -0.2116
    116  CA        10.6320   38.4110   12.6680 C.3   244  PRO244      0.1372
    117  C         10.5900   38.2380   11.1570 C.2   244  PRO244      0.2244
    118  O         10.9540   37.1880   10.6270 O.2   244  PRO244     -0.2868
    119  CB        11.8760   39.1620   13.1560 C.3   244  PRO244      0.0268
    120  CG        12.6380   38.1550   13.9610 C.3   244  PRO244      0.0207
    121  CD        11.6100   37.2620   14.5650 C.3   244  PRO244      0.0892
    122  N         21.9370   38.8040   20.7170 N.3   284  ALA284     -0.1231
    123  CA        21.2350   38.6570   19.4450 C.3   284  ALA284      0.1694
    124  C         22.1200   39.0610   18.2670 C.2   284  ALA284      0.2591
    125  O         21.9170   38.5980   17.1470 O.2   284  ALA284     -0.2718
    126  CB        19.9580   39.4860   19.4510 C.3   284  ALA284      0.0304
    127  N         23.0980   39.9270   18.5150 N.am  285  ARG285     -0.1980
    128  CA        24.0050   40.3480   17.4530 C.3   285  ARG285      0.1597
    129  C         24.8490   39.1580   17.0070 C.2   285  ARG285      0.2287
    130  O         25.2090   39.0380   15.8390 O.2   285  ARG285     -0.2864
    131  CB        24.9450   41.4630   17.9300 C.3   285  ARG285      0.0334
    132  CG        24.2710   42.7820   18.2900 C.3   285  ARG285      0.0492
    133  CD        25.2490   43.9660   18.1520 C.3   285  ARG285      0.2205
    134  NE        24.6880   45.2360   18.6290 N.pl3 285  ARG285     -0.0865
    135  CZ        24.5900   45.5780   19.9130 C.cat 285  ARG285      0.5346
    136  NH1       25.0190   44.7490   20.8560 N.pl3 285  ARG285      0.1354
    137  NH2       24.0610   46.7440   20.2610 N.pl3 285  ARG285      0.1354
@<TRIPOS>BOND
     1    12    11    1
     2    11    10   ar
     3    11     9   ar
     4    10     8   ar
     5     9     7   ar
     6   118   117    2
     7     8     6   ar
     8   117   116    1
     9    85    84    2
    10     7     6   ar
    11     6     5    1
    12    84    83    1
    13   116   119    1
    14   116   115    1
    15    86    83    1
    16    86    87    1
    17   119   120    1
    18     5     2    1
    19    83    82    1
    20    87    88    1
    21   115   121    1
    22    88    89    2
    23    88    90   am
    24     1     2    1
    25     2     3    1
    26   120   121    1
    27    80    79    1
    28   110   109    2
    29     3     4    2
    30     3    13   am
    31    77    76    2
    32   130   129    2
    33   109   108    1
    34    79    81    1
    35    79    78    1
    36    13    14    1
    37    70    69    2
    38    76    75    1
    39    75    78    1
    40    75    74    1
    41    72    71    1
    42   129   128    1
    43   113   111    1
    44   125   124    2
    45   108   111    1
    46   108   107    1
    47    69    74   am
    48    69    68    1
    49    19    17    1
    50   128   131    1
    51   128   127    1
    52    14    17    1
    53    14    15    1
    54    27    25    1
    55   131   132    1
    56   111   112    1
    57    71    68    1
    58    71    73    1
    59   133   132    1
    60   133   134    1
    61   124   127   am
    62   124   123    1
    63    17    18    1
    64    25    24    1
    65    16    15    2
    66    15    20   am
    67    68    67    1
    68   134   135    2
    69   112   114    1
    70    20    21    1
    71   123   126    1
    72   123   122    1
    73    67    60   am
    74    61    60    2
    75    24    21    1
    76    24    26    1
    77   135   137    1
    78   135   136    1
    79    21    22    1
    80    57    56    2
    81    60    59    1
    82    55    56    1
    83    55    54    1
    84    56    58   am
    85    98    96   ar
    86    22    23    2
    87    95    96    1
    88    95    92    1
    89    58    59    1
    90    59    62    1
    91    91    92    1
    92    54    50   am
    93    96    97   ar
    94    92    93    1
    95    50    51    2
    96    50    49    1
    97    45    46    1
    98    45    44    1
    99    47    46    2
   100    62    63    1
   101    46    48   am
   102    48    49    1
   103    44    39   am
   104    94    93    2
   105   105   103    1
   106   106   104    1
   107    49    52    1
   108   104   103    1
   109    31    30    2
   110    33    32    1
   111    33    34    1
   112    43    41    1
   113    63    64    1
   114    32    29    1
   115   103   100    1
   116    30    29    1
   117    39    40    2
   118    39    38    1
   119    28    29    1
   120    66    65    1
   121    65    64    1
   122    52    53    1
   123    35    34    2
   124    34    36   am
   125    41    38    1
   126    41    42    1
   127    38    37    1
   128   100   101    1
   129   100    99    1
   130   101   102    2
