@<TRIPOS>MOLECULE
tmp/1umaB03.pdb
 130 128 0 0 0
SMALL
GASTEIGER

@<TRIPOS>ATOM
      1  N         14.5260   -6.8350   11.9580 N.3    28  CYS28      -0.1235
      2  CA        14.2720   -6.4030   13.3270 C.3    28  CYS28       0.1677
      3  C         13.6250   -5.0340   13.2430 C.2    28  CYS28       0.2270
      4  O         13.4910   -4.4530   12.1600 O.2    28  CYS28      -0.2867
      5  CB        15.7000   -6.0100   13.7970 C.3    28  CYS28       0.0956
      6  SG        16.6040   -7.3410   14.6670 S.3    28  CYS28      -0.0801
      7  N         22.6700   -7.0020   18.2920 N.3    43  HIS43      -0.1241
      8  CA        22.4810   -8.3530   17.8370 C.3    43  HIS43       0.1621
      9  C         21.6870   -8.4900   16.5660 C.2    43  HIS43       0.2264
     10  O         21.7310   -9.5240   15.8960 O.2    43  HIS43      -0.2867
     11  CB        22.0290   -9.2760   18.9830 C.3    43  HIS43       0.0745
     12  CG        20.5620   -9.2560   19.1310 C.ar   43  HIS43       0.0817
     13  ND1       19.9580   -8.4890   20.1050 N.ar   43  HIS43      -0.2268
     14  CD2       19.5950   -9.8850   18.4280 C.ar   43  HIS43       0.1154
     15  CE1       18.6460   -8.6860   20.0000 C.ar   43  HIS43       0.1986
     16  NE2       18.3940   -9.5110   18.9910 N.ar   43  HIS43      -0.2212
     17  N         25.9090  -17.2750   15.1580 N.3    50  TRP50      -0.1241
     18  CA        24.9590  -17.7470   14.1630 C.3    50  TRP50       0.1605
     19  C         25.3840  -17.2540   12.8230 C.2    50  TRP50       0.2264
     20  O         24.5970  -17.2030   11.8690 O.2    50  TRP50      -0.2867
     21  CB        23.5310  -17.2240   14.3400 C.3    50  TRP50       0.0550
     22  CG        22.7240  -17.9040   15.4030 C.ar   50  TRP50       0.0003
     23  CD1       23.1900  -18.7730   16.3390 C.ar   50  TRP50       0.0946
     24  CD2       21.3120  -17.7450   15.6380 C.ar   50  TRP50       0.0152
     25  NE1       22.1510  -19.1580   17.1490 N.ar   50  TRP50      -0.2442
     26  CE2       20.9790  -18.5720   16.7270 C.ar   50  TRP50       0.0810
     27  CE3       20.3120  -16.9910   15.0390 C.ar   50  TRP50       0.0012
     28  CZ2       19.6730  -18.6730   17.2090 C.ar   50  TRP50       0.0191
     29  CZ3       19.0270  -17.1000   15.5130 C.ar   50  TRP50       0.0001
     30  CH2       18.7040  -17.9280   16.5830 C.ar   50  TRP50       0.0015
     31  N         25.9560  -14.2590   12.0530 N.3    52  LYS52      -0.1245
     32  CA        25.2980  -13.0540   11.5920 C.3    52  LYS52       0.1561
     33  C         26.2110  -11.8550   11.7050 C.2    52  LYS52       0.2260
     34  O         26.6820  -11.4950   12.7740 O.2    52  LYS52      -0.2867
     35  CB        23.9810  -12.8180   12.2790 C.3    52  LYS52       0.0271
     36  CG        23.3750  -11.4510   11.9800 C.3    52  LYS52       0.0035
     37  CD        22.4310  -11.0460   13.1060 C.3    52  LYS52       0.0206
     38  CE        21.2150  -11.9270   13.2300 C.3    52  LYS52       0.1093
     39  NZ        20.3840  -11.5290   14.3780 N.3    52  LYS52      -0.1314
     40  N          4.1490   -9.8230   24.8480 N.3   193  ASP193     -0.1225
     41  CA         5.5810   -9.8540   24.8000 C.3   193  ASP193      0.1805
     42  C          6.0080   -9.5210   23.3770 C.2   193  ASP193      0.2598
     43  O          5.2080   -9.5220   22.4470 O.2   193  ASP193     -0.2718
     44  CB         6.0730  -11.2420   25.2860 C.3   193  ASP193      0.1424
     45  CG         7.5470  -11.4080   25.4730 C.2   193  ASP193      0.3668
     46  OD1        8.2490  -10.3840   25.6370 O.co2 193  ASP193     -0.2456
     47  OD2        8.0320  -12.5750   25.5300 O.co2 193  ASP193     -0.2456
     48  N          7.2900   -9.2180   23.2500 N.am  194  ALA194     -0.1966
     49  CA         7.9220   -9.0190   21.9870 C.3   194  ALA194      0.1728
     50  C          8.2080  -10.4480   21.5440 C.2   194  ALA194      0.2616
     51  O          8.2830  -11.3800   22.3360 O.2   194  ALA194     -0.2715
     52  CB         9.2920   -8.3760   22.1170 C.3   194  ALA194      0.0334
     53  N          8.4230  -10.6070   20.2640 N.am  195  CYS195     -0.1954
     54  CA         8.7030  -11.9220   19.7230 C.3   195  CYS195      0.1843
     55  C          9.6320  -11.7830   18.5470 C.2   195  CYS195      0.2625
     56  O         10.1080  -10.7010   18.2160 O.2   195  CYS195     -0.2714
     57  CB         7.4430  -12.7520   19.3460 C.3   195  CYS195      0.0997
     58  SG         7.6930  -14.5550   19.2770 S.3   195  CYS195     -0.0797
     59  N          9.8630  -12.9120   17.9160 N.am  196  GLU196     -0.1963
     60  CA        10.7610  -12.8770   16.8040 C.3   196  GLU196      0.1733
     61  C         10.3660  -11.8060   15.7930 C.2   196  GLU196      0.2616
     62  O          9.1950  -11.6850   15.4410 O.2   196  GLU196     -0.2715
     63  CB        10.6660  -14.2440   16.1540 C.3   196  GLU196      0.0429
     64  CG        11.9530  -14.4700   15.3600 C.3   196  GLU196      0.1163
     65  CD        12.0470  -15.8120   14.6960 C.2   196  GLU196      0.3649
     66  OE1       11.7290  -16.8800   15.3210 O.co2 196  GLU196     -0.2457
     67  OE2       12.5130  -15.7170   13.5320 O.co2 196  GLU196     -0.2457
     68  N         11.3320  -11.0230   15.3240 N.am  197  GLY197     -0.1955
     69  CA        10.9810   -9.9860   14.3760 C.3   197  GLY197      0.1869
     70  C         10.8680   -8.6370   15.0700 C.2   197  GLY197      0.2309
     71  O         11.0570   -7.6260   14.4250 O.2   197  GLY197     -0.2863
     72  N         12.8020   -7.5990   17.8190 N.3   199  SER199     -0.1217
     73  CA        14.0260   -7.1380   18.4180 C.3   199  SER199      0.1889
     74  C         14.5470   -5.9090   17.7570 C.2   199  SER199      0.2288
     75  O         14.3580   -5.7580   16.5600 O.2   199  SER199     -0.2866
     76  CB        15.0950   -8.2070   18.3270 C.3   199  SER199      0.2089
     77  OG        14.5950   -9.3840   18.9160 O.3   199  SER199     -0.2183
     78  N         14.2080   -3.6500   22.5320 N.3   219  VAL219     -0.1231
     79  CA        13.8470   -5.0650   22.5990 C.3   219  VAL219      0.1692
     80  C         15.1260   -5.8780   22.3930 C.2   219  VAL219      0.2593
     81  O         15.7720   -5.8400   21.3360 O.2   219  VAL219     -0.2718
     82  CB        12.7740   -5.4720   21.5980 C.3   219  VAL219      0.0266
     83  CG1       12.5220   -6.9810   21.6930 C.3   219  VAL219      0.0020
     84  CG2       11.4810   -4.7000   21.8150 C.3   219  VAL219      0.0020
     85  N         15.5600   -6.5970   23.4380 N.am  220  SER220     -0.1938
     86  CA        16.8340   -7.2830   23.3240 C.3   220  SER220      0.2055
     87  C         16.7710   -8.8020   23.3480 C.2   220  SER220      0.2643
     88  O         17.1990   -9.4530   22.4080 O.2   220  SER220     -0.2714
     89  CB        17.8250   -6.7710   24.3600 C.3   220  SER220      0.2130
     90  OG        19.0350   -7.4940   24.2330 O.3   220  SER220     -0.2179
     91  N         16.2620   -9.3840   24.4250 N.am  221  TRP221     -0.1959
     92  CA        16.1920  -10.8230   24.4310 C.3   221  TRP221      0.1771
     93  C         15.1410  -11.3330   25.3790 C.2   221  TRP221      0.2620
     94  O         14.6040  -10.6200   26.2330 O.2   221  TRP221     -0.2715
     95  CB        17.5730  -11.4770   24.6950 C.3   221  TRP221      0.0590
     96  CG        18.1080  -11.1230   26.0500 C.ar  221  TRP221      0.0006
     97  CD1       18.8680  -10.0490   26.3870 C.ar  221  TRP221      0.0946
     98  CD2       17.9370  -11.8700   27.2440 C.ar  221  TRP221      0.0152
     99  NE1       19.2050  -10.0850   27.7080 N.ar  221  TRP221     -0.2442
    100  CE2       18.6440  -11.1970   28.2570 C.ar  221  TRP221      0.0810
    101  CE3       17.2660  -13.0450   27.5270 C.ar  221  TRP221      0.0012
    102  CZ2       18.6680  -11.6620   29.5640 C.ar  221  TRP221      0.0191
    103  CZ3       17.2900  -13.4910   28.8210 C.ar  221  TRP221      0.0001
    104  CH2       17.9880  -12.8200   29.8240 C.ar  221  TRP221      0.0015
    105  N         14.8520  -12.6100   25.1670 N.am  222  GLY222     -0.1954
    106  CA        13.8780  -13.2760   25.9980 C.3   222  GLY222      0.1869
    107  C         13.8580  -14.7400   25.6300 C.2   222  GLY222      0.2309
    108  O         14.2660  -15.0850   24.5330 O.2   222  GLY222     -0.2863
    109  N         11.7980  -17.6260   24.6680 N.3   224  GLY224     -0.1210
    110  CA        10.4930  -17.9060   24.0810 C.3   224  GLY224      0.1956
    111  C          9.7270  -16.5890   23.9230 C.2   224  GLY224      0.2612
    112  O         10.2970  -15.5040   23.9790 O.2   224  GLY224     -0.2717
    113  N          8.4210  -16.6390   23.7790 N.am  225  CYS225     -0.1970
    114  CA         7.6530  -15.4040   23.6750 C.3   225  CYS225      0.1712
    115  C          6.4130  -15.5330   24.5040 C.2   225  CYS225      0.2296
    116  O          5.5940  -16.4360   24.3450 O.2   225  CYS225     -0.2864
    117  CB         7.1790  -15.0450   22.2560 C.3   225  CYS225      0.0983
    118  SG         8.5320  -15.1060   21.0870 S.3   225  CYS225     -0.0798
    119  N         10.2740  -13.1910   31.2180 N.3   231  TYR231     -0.1241
    120  CA        10.1220  -11.7870   30.9310 C.3   231  TYR231      0.1605
    121  C         10.9730  -11.4280   29.7500 C.2   231  TYR231      0.2264
    122  O         11.8250  -12.1920   29.2880 O.2   231  TYR231     -0.2867
    123  CB        10.5960  -10.9140   32.1220 C.3   231  TYR231      0.0534
    124  CG         9.7820  -11.3500   33.2870 C.ar  231  TYR231     -0.0201
    125  CD1        8.5070  -10.8110   33.4430 C.ar  231  TYR231     -0.0009
    126  CD2       10.2110  -12.3750   34.1320 C.ar  231  TYR231     -0.0009
    127  CE1        7.6890  -11.2100   34.4990 C.ar  231  TYR231      0.0417
    128  CE2        9.4030  -12.7990   35.1880 C.ar  231  TYR231      0.0417
    129  CZ         8.1430  -12.2220   35.3460 C.ar  231  TYR231      0.1957
    130  OH         7.3140  -12.6500   36.3370 O.3   231  TYR231     -0.2866
@<TRIPOS>BOND
     1    32    33    1
     2    32    31    1
     3    32    35    1
     4    33    34    2
     5    20    19    2
     6     1     2    1
     7    36    35    1
     8    36    37    1
     9     4     3    2
    10    19    18    1
    11    37    38    1
    12    38    39    1
    13     3     2    1
    14     2     5    1
    15    67    65   ar
    16     5     6    1
    17    18    21    1
    18    18    17    1
    19    21    22    1
    20    69    70    1
    21    69    68    1
    22    71    70    2
    23    65    66   ar
    24    65    64    1
    25    27    29   ar
    26    27    24   ar
    27    68    61   am
    28    64    63    1
    29    22    24   ar
    30    22    23   ar
    31    62    61    2
    32    29    30   ar
    33    24    26   ar
    34    61    60    1
    35    10     9    2
    36    63    60    1
    37    23    25   ar
    38    75    74    2
    39     9     8    1
    40    30    28   ar
    41    26    25   ar
    42    26    28   ar
    43    60    59    1
    44    74    73    1
    45    72    73    1
    46     8     7    1
    47     8    11    1
    48    59    55   am
    49    56    55    2
    50    76    73    1
    51    76    77    1
    52    14    16   ar
    53    14    12   ar
    54    55    54    1
    55    11    12    1
    56    16    15   ar
    57    12    13   ar
    58    58    57    1
    59    58   118    1
    60    57    54    1
    61    54    53    1
    62    15    13   ar
    63    53    50   am
    64   118   117    1
    65    81    80    2
    66    50    49    1
    67    50    51    2
    68    82    83    1
    69    82    84    1
    70    82    79    1
    71    49    52    1
    72    49    48    1
    73   117   114    1
    74    80    79    1
    75    80    85   am
    76    88    87    2
    77    43    42    2
    78    78    79    1
    79    48    42   am
    80    86    87    1
    81    86    85    1
    82    86    89    1
    83    87    91   am
    84    42    41    1
    85   114   113    1
    86   114   115    1
    87   113   111   am
    88   111   112    2
    89   111   110    1
    90   110   109    1
    91    90    89    1
    92   116   115    2
    93    91    92    1
    94    92    95    1
    95    92    93    1
    96   108   107    2
    97    95    96    1
    98    41    40    1
    99    41    44    1
   100   105    93   am
   101   105   106    1
   102    44    45    1
   103    93    94    2
   104    45    47   ar
   105    45    46   ar
   106   107   106    1
   107    96    97   ar
   108    96    98   ar
   109    97    99   ar
   110    98   101   ar
   111    98   100   ar
   112   101   103   ar
   113    99   100   ar
   114   100   102   ar
   115   103   104   ar
   116   122   121    2
   117   102   104   ar
   118   121   120    1
   119   120   119    1
   120   120   123    1
   121   123   124    1
   122   124   125   ar
   123   124   126   ar
   124   125   127   ar
   125   126   128   ar
   126   127   129   ar
   127   128   129   ar
   128   129   130    1
