@<TRIPOS>MOLECULE
tmp/1umaB02.pdb
 119 119 0 0 0
SMALL
GASTEIGER

@<TRIPOS>ATOM
      1  N         22.6700   -7.0020   18.2920 N.3    43  HIS43      -0.1241
      2  CA        22.4810   -8.3530   17.8370 C.3    43  HIS43       0.1621
      3  C         21.6870   -8.4900   16.5660 C.2    43  HIS43       0.2264
      4  O         21.7310   -9.5240   15.8960 O.2    43  HIS43      -0.2867
      5  CB        22.0290   -9.2760   18.9830 C.3    43  HIS43       0.0745
      6  CG        20.5620   -9.2560   19.1310 C.ar   43  HIS43       0.0817
      7  ND1       19.9580   -8.4890   20.1050 N.ar   43  HIS43      -0.2268
      8  CD2       19.5950   -9.8850   18.4280 C.ar   43  HIS43       0.1154
      9  CE1       18.6460   -8.6860   20.0000 C.ar   43  HIS43       0.1986
     10  NE2       18.3940   -9.5110   18.9910 N.ar   43  HIS43      -0.2212
     11  N         26.0660  -11.1510   15.3730 N.3    47  TYR47      -0.1241
     12  CA        25.8780  -12.3080   16.2010 C.3    47  TYR47       0.1605
     13  C         26.6110  -13.5330   15.6490 C.2    47  TYR47       0.2264
     14  O         26.0710  -14.4690   15.0420 O.2    47  TYR47      -0.2867
     15  CB        24.3870  -12.5440   16.2810 C.3    47  TYR47       0.0534
     16  CG        24.2380  -13.4280   17.4560 C.ar   47  TYR47      -0.0201
     17  CD1       24.6080  -12.9480   18.7100 C.ar   47  TYR47      -0.0009
     18  CD2       23.8380  -14.7520   17.3010 C.ar   47  TYR47      -0.0009
     19  CE1       24.4840  -13.7780   19.8260 C.ar   47  TYR47       0.0417
     20  CE2       23.7530  -15.6140   18.3920 C.ar   47  TYR47       0.0417
     21  CZ        24.0690  -15.1000   19.6520 C.ar   47  TYR47       0.1957
     22  OH        23.9710  -15.9040   20.7470 O.3    47  TYR47      -0.2866
     23  N         25.9090  -17.2750   15.1580 N.3    50  TRP50      -0.1241
     24  CA        24.9590  -17.7470   14.1630 C.3    50  TRP50       0.1605
     25  C         25.3840  -17.2540   12.8230 C.2    50  TRP50       0.2264
     26  O         24.5970  -17.2030   11.8690 O.2    50  TRP50      -0.2867
     27  CB        23.5310  -17.2240   14.3400 C.3    50  TRP50       0.0550
     28  CG        22.7240  -17.9040   15.4030 C.ar   50  TRP50       0.0003
     29  CD1       23.1900  -18.7730   16.3390 C.ar   50  TRP50       0.0946
     30  CD2       21.3120  -17.7450   15.6380 C.ar   50  TRP50       0.0152
     31  NE1       22.1510  -19.1580   17.1490 N.ar   50  TRP50      -0.2442
     32  CE2       20.9790  -18.5720   16.7270 C.ar   50  TRP50       0.0810
     33  CE3       20.3120  -16.9910   15.0390 C.ar   50  TRP50       0.0012
     34  CZ2       19.6730  -18.6730   17.2090 C.ar   50  TRP50       0.0191
     35  CZ3       19.0270  -17.1000   15.5130 C.ar   50  TRP50       0.0001
     36  CH2       18.7040  -17.9280   16.5830 C.ar   50  TRP50       0.0015
     37  N         25.9560  -14.2590   12.0530 N.3    52  LYS52      -0.1245
     38  CA        25.2980  -13.0540   11.5920 C.3    52  LYS52       0.1561
     39  C         26.2110  -11.8550   11.7050 C.2    52  LYS52       0.2260
     40  O         26.6820  -11.4950   12.7740 O.2    52  LYS52      -0.2867
     41  CB        23.9810  -12.8180   12.2790 C.3    52  LYS52       0.0271
     42  CG        23.3750  -11.4510   11.9800 C.3    52  LYS52       0.0035
     43  CD        22.4310  -11.0460   13.1060 C.3    52  LYS52       0.0206
     44  CE        21.2150  -11.9270   13.2300 C.3    52  LYS52       0.1093
     45  NZ        20.3840  -11.5290   14.3780 N.3    52  LYS52      -0.1314
     46  N         28.2990  -10.3010   23.0120 N.3    92  TRP92      -0.1241
     47  CA        27.5660  -11.3640   22.3480 C.3    92  TRP92       0.1605
     48  C         27.9900  -12.7300   22.8080 C.2    92  TRP92       0.2264
     49  O         27.2440  -13.6620   22.5760 O.2    92  TRP92      -0.2867
     50  CB        27.6230  -11.3560   20.8130 C.3    92  TRP92       0.0550
     51  CG        29.0270  -11.2840   20.3670 C.ar   92  TRP92       0.0003
     52  CD1       29.7020  -10.1400   20.1290 C.ar   92  TRP92       0.0946
     53  CD2       29.9490  -12.3750   20.1720 C.ar   92  TRP92       0.0152
     54  NE1       31.0020  -10.4450   19.7750 N.ar   92  TRP92      -0.2442
     55  CE2       31.1790  -11.8120   19.7790 C.ar   92  TRP92       0.0810
     56  CE3       29.8660  -13.7720   20.2270 C.ar   92  TRP92       0.0012
     57  CZ2       32.3060  -12.6170   19.4830 C.ar   92  TRP92       0.0191
     58  CZ3       30.9620  -14.5730   19.9240 C.ar   92  TRP92       0.0001
     59  CH2       32.1900  -14.0020   19.5580 C.ar   92  TRP92       0.0015
     60  N         28.4290  -13.7100   25.9700 N.3    94  GLU94      -0.1231
     61  CA        27.7530  -14.2300   27.1300 C.3    94  GLU94       0.1699
     62  C         26.3150  -13.8290   27.2680 C.2    94  GLU94       0.2592
     63  O         25.4710  -14.6900   27.1750 O.2    94  GLU94      -0.2718
     64  CB        28.5480  -13.9620   28.4180 C.3    94  GLU94       0.0402
     65  CG        27.8820  -14.5460   29.6880 C.3    94  GLU94       0.1161
     66  CD        28.1720  -13.7840   30.9740 C.2    94  GLU94       0.3649
     67  OE1       29.1130  -12.9280   30.9900 O.co2  94  GLU94      -0.2457
     68  OE2       27.4550  -14.0150   31.9980 O.co2  94  GLU94      -0.2457
     69  N         25.9720  -12.5770   27.5090 N.am   95  ASN95      -0.1960
     70  CA        24.5420  -12.3560   27.7210 C.3    95  ASN95       0.1819
     71  C         23.9240  -11.1800   26.9700 C.2    95  ASN95       0.2621
     72  O         22.8900  -10.6640   27.4120 O.2    95  ASN95      -0.2715
     73  CB        24.3470  -12.1420   29.2440 C.3    95  ASN95       0.1195
     74  CG        25.3720  -11.1000   29.6880 C.2    95  ASN95       0.2630
     75  OD1       26.1260  -10.5700   28.8370 O.2    95  ASN95      -0.2716
     76  ND2       25.3970  -10.7650   30.9720 N.am   95  ASN95      -0.0877
     77  N         24.5550  -10.7530   25.8640 N.am   96  LEU96      -0.1977
     78  CA        24.0560   -9.6270   25.0720 C.3    96  LEU96       0.1596
     79  C         24.0350   -8.3720   25.9220 C.2    96  LEU96       0.2287
     80  O         23.1400   -7.5400   25.8350 O.2    96  LEU96      -0.2864
     81  CB        22.6060   -9.7980   24.5620 C.3    96  LEU96       0.0297
     82  CG        22.4110  -10.9850   23.6350 C.3    96  LEU96       0.0022
     83  CD1       21.0520  -10.9450   22.9310 C.3    96  LEU96       0.0001
     84  CD2       23.5330  -11.0380   22.6210 C.3    96  LEU96       0.0001
     85  N         20.4940  -16.7680   32.9430 N.3   173  ILE173     -0.1245
     86  CA        21.4320  -15.8410   32.3220 C.3   173  ILE173      0.1561
     87  C         21.8330  -14.7470   33.3210 C.2   173  ILE173      0.2260
     88  O         20.9910  -14.2970   34.1120 O.2   173  ILE173     -0.2867
     89  CB        20.8020  -15.2940   31.0380 C.3   173  ILE173      0.0252
     90  CG1       20.8340  -16.4390   30.0420 C.3   173  ILE173      0.0019
     91  CG2       21.6380  -14.1700   30.4380 C.3   173  ILE173      0.0019
     92  CD1       19.8440  -16.2290   28.9120 C.3   173  ILE173      0.0001
     93  N         16.2620   -9.3840   24.4250 N.3   221  TRP221     -0.1227
     94  CA        16.1920  -10.8230   24.4310 C.3   221  TRP221      0.1737
     95  C         15.1410  -11.3330   25.3790 C.2   221  TRP221      0.2596
     96  O         14.6040  -10.6200   26.2330 O.2   221  TRP221     -0.2718
     97  CB        17.5730  -11.4770   24.6950 C.3   221  TRP221      0.0564
     98  CG        18.1080  -11.1230   26.0500 C.ar  221  TRP221      0.0003
     99  CD1       18.8680  -10.0490   26.3870 C.ar  221  TRP221      0.0946
    100  CD2       17.9370  -11.8700   27.2440 C.ar  221  TRP221      0.0152
    101  NE1       19.2050  -10.0850   27.7080 N.ar  221  TRP221     -0.2442
    102  CE2       18.6440  -11.1970   28.2570 C.ar  221  TRP221      0.0810
    103  CE3       17.2660  -13.0450   27.5270 C.ar  221  TRP221      0.0012
    104  CZ2       18.6680  -11.6620   29.5640 C.ar  221  TRP221      0.0191
    105  CZ3       17.2900  -13.4910   28.8210 C.ar  221  TRP221      0.0001
    106  CH2       17.9880  -12.8200   29.8240 C.ar  221  TRP221      0.0015
    107  N         14.8520  -12.6100   25.1670 N.am  222  GLY222     -0.1942
    108  CA        13.8780  -13.2760   25.9980 C.3   222  GLY222      0.2014
    109  C         13.8580  -14.7400   25.6300 C.2   222  GLY222      0.2638
    110  O         14.2660  -15.0850   24.5330 O.2   222  GLY222     -0.2714
    111  N         13.4210  -15.5730   26.5610 N.am  223  GLU223     -0.1977
    112  CA        13.3690  -17.0190   26.3760 C.3   223  GLU223      0.1602
    113  C         11.9560  -17.4140   25.9880 C.2   223  GLU223      0.2287
    114  O         11.0420  -17.4310   26.8290 O.2   223  GLU223     -0.2864
    115  CB        13.8550  -17.6940   27.6740 C.3   223  GLU223      0.0415
    116  CG        15.2020  -17.1200   28.1900 C.3   223  GLU223      0.1163
    117  CD        15.5380  -17.4160   29.6370 C.2   223  GLU223      0.3649
    118  OE1       14.8810  -16.8690   30.5750 O.co2 223  GLU223     -0.2457
    119  OE2       16.5480  -18.1330   29.8510 O.co2 223  GLU223     -0.2457
@<TRIPOS>BOND
     1    38    39    1
     2    38    37    1
     3    38    41    1
     4    39    40    2
     5    26    25    2
     6    42    41    1
     7    42    43    1
     8    25    24    1
     9    43    44    1
    10    44    45    1
    11    24    27    1
    12    24    23    1
    13    27    28    1
    14    33    35   ar
    15    33    30   ar
    16    14    13    2
    17    11    12    1
    18    28    30   ar
    19    28    29   ar
    20    35    36   ar
    21    30    32   ar
    22    13    12    1
    23     4     3    2
    24    12    15    1
    25    15    16    1
    26    29    31   ar
    27     3     2    1
    28    36    34   ar
    29    32    31   ar
    30    32    34   ar
    31    18    16   ar
    32    18    20   ar
    33    16    17   ar
    34     2     1    1
    35     2     5    1
    36    20    21   ar
    37     8    10   ar
    38     8     6   ar
    39    17    19   ar
    40     5     6    1
    41    10     9   ar
    42     6     7   ar
    43    57    59   ar
    44    57    55   ar
    45    59    58   ar
    46    21    19   ar
    47    21    22    1
    48    54    55   ar
    49    54    52   ar
    50    55    53   ar
    51    58    56   ar
    52     9     7   ar
    53    52    51   ar
    54    53    56   ar
    55    53    51   ar
    56    51    50    1
    57    50    47    1
    58    47    48    1
    59    47    46    1
    60    49    48    2
    61    84    82    1
    62    83    82    1
    63    82    81    1
    64    93    94    1
    65    94    97    1
    66    94    95    1
    67   110   109    2
    68    81    78    1
    69    97    98    1
    70    78    77    1
    71    78    79    1
    72   107    95   am
    73   107   108    1
    74    95    96    2
    75   109   108    1
    76   109   111   am
    77    80    79    2
    78    77    71   am
    79    60    61    1
    80   113   112    1
    81   113   114    2
    82    98    99   ar
    83    98   100   ar
    84   112   111    1
    85   112   115    1
    86    99   101   ar
    87    71    72    2
    88    71    70    1
    89    61    62    1
    90    61    64    1
    91    63    62    2
    92   100   103   ar
    93   100   102   ar
    94    62    69   am
    95    69    70    1
    96   103   105   ar
    97   115   116    1
    98   101   102   ar
    99    70    73    1
   100   116   117    1
   101   102   104   ar
   102    64    65    1
   103   105   106   ar
   104    75    74    2
   105    92    90    1
   106    73    74    1
   107   104   106   ar
   108   117   119   ar
   109   117   118   ar
   110    65    66    1
   111    74    76   am
   112    90    89    1
   113    91    89    1
   114    66    67   ar
   115    66    68   ar
   116    89    86    1
   117    86    85    1
   118    86    87    1
   119    87    88    2
