@<TRIPOS>MOLECULE
tmp/1umbA00.pdb
 140 137 0 0 0
SMALL
GASTEIGER

@<TRIPOS>ATOM
      1  N         44.8820   37.0050   56.4050 N.3    89  TYR89      -0.1227
      2  CA        44.0390   35.9020   56.8310 C.3    89  TYR89       0.1736
      3  C         44.3620   34.7460   55.8890 C.2    89  TYR89       0.2595
      4  O         45.1850   34.9030   54.9880 O.2    89  TYR89      -0.2718
      5  CB        42.5450   36.2750   56.8550 C.3    89  TYR89       0.0548
      6  CG        41.8260   36.4200   55.5370 C.ar   89  TYR89      -0.0200
      7  CD1       42.0810   37.4950   54.6860 C.ar   89  TYR89      -0.0009
      8  CD2       40.8110   35.5260   55.1860 C.ar   89  TYR89      -0.0009
      9  CE1       41.3340   37.6810   53.5210 C.ar   89  TYR89       0.0417
     10  CE2       40.0630   35.7040   54.0280 C.ar   89  TYR89       0.0417
     11  CZ        40.3260   36.7830   53.2040 C.ar   89  TYR89       0.1957
     12  OH        39.5580   36.9720   52.0800 O.3    89  TYR89      -0.2866
     13  N         43.7420   33.5920   56.1040 N.am   90  TYR90      -0.1962
     14  CA        44.0310   32.3890   55.3200 C.3    90  TYR90       0.1771
     15  C         43.9940   32.4310   53.7910 C.2    90  TYR90       0.2619
     16  O         44.7170   31.6660   53.1410 O.2    90  TYR90      -0.2715
     17  CB        43.1330   31.2350   55.8070 C.3    90  TYR90       0.0574
     18  CG        41.6600   31.5470   55.7050 C.ar   90  TYR90      -0.0198
     19  CD1       40.9980   31.4810   54.4800 C.ar   90  TYR90      -0.0009
     20  CD2       40.9460   31.9920   56.8180 C.ar   90  TYR90      -0.0009
     21  CE1       39.6650   31.8580   54.3590 C.ar   90  TYR90       0.0417
     22  CE2       39.6110   32.3770   56.7090 C.ar   90  TYR90       0.0417
     23  CZ        38.9800   32.3110   55.4740 C.ar   90  TYR90       0.1957
     24  OH        37.6790   32.7390   55.3480 O.3    90  TYR90      -0.2866
     25  N         43.1830   33.3030   53.1990 N.am   91  ARG91      -0.1977
     26  CA        43.0960   33.3220   51.7380 C.3    91  ARG91       0.1597
     27  C         44.1420   34.1950   51.0440 C.2    91  ARG91       0.2287
     28  O         44.1650   34.2890   49.8140 O.2    91  ARG91      -0.2864
     29  CB        41.6830   33.7530   51.3060 C.3    91  ARG91       0.0334
     30  CG        41.2510   33.2150   49.9320 C.3    91  ARG91       0.0492
     31  CD        39.8040   33.5840   49.5970 C.3    91  ARG91       0.2205
     32  NE        38.8330   32.9680   50.5040 N.pl3  91  ARG91      -0.0865
     33  CZ        38.4400   31.6970   50.4420 C.cat  91  ARG91       0.5346
     34  NH1       38.9250   30.8860   49.5110 N.pl3  91  ARG91       0.1354
     35  NH2       37.5640   31.2310   51.3220 N.pl3  91  ARG91       0.1354
     36  N         43.4430   31.1880   63.1600 N.3   139  SER139     -0.1203
     37  CA        42.1680   30.6560   62.6880 C.3   139  SER139      0.2005
     38  C         40.8940   31.4360   63.0160 C.2   139  SER139      0.2461
     39  O         40.0350   31.6100   62.1510 O.2   139  SER139     -0.2732
     40  CB        42.0140   29.2130   63.1620 C.3   139  SER139      0.2103
     41  OG        43.0790   28.4190   62.6750 O.3   139  SER139     -0.2182
     42  N         40.7390   31.9020   64.2640 N.am  140  PRO140     -0.2717
     43  CA        39.5040   32.6420   64.5420 C.3   140  PRO140      0.1535
     44  C         39.3250   33.8960   63.6830 C.2   140  PRO140      0.2598
     45  O         40.1790   34.7880   63.6580 O.2   140  PRO140     -0.2715
     46  CB        39.5960   32.9320   66.0440 C.3   140  PRO140      0.0310
     47  CG        41.0690   32.8670   66.3350 C.3   140  PRO140      0.0237
     48  CD        41.5550   31.7400   65.4780 C.3   140  PRO140      0.0939
     49  N         38.2080   33.9350   62.9650 N.am  141  ILE141     -0.1978
     50  CA        37.8750   35.0510   62.0860 C.3   141  ILE141      0.1596
     51  C         37.9910   36.4060   62.7800 C.2   141  ILE141      0.2287
     52  O         37.4330   36.6130   63.8610 O.2   141  ILE141     -0.2864
     53  CB        36.4340   34.9080   61.5280 C.3   141  ILE141      0.0276
     54  CG1       36.3660   33.7290   60.5550 C.3   141  ILE141      0.0022
     55  CG2       36.0080   36.1870   60.8210 C.3   141  ILE141      0.0022
     56  CD1       37.2240   33.9020   59.3080 C.3   141  ILE141      0.0001
     57  N         37.9950   39.0740   55.0620 N.3   169  GLY169     -0.1210
     58  CA        36.8880   38.9230   54.1310 C.3   169  GLY169      0.1956
     59  C         35.6530   39.6650   54.6160 C.2   169  GLY169      0.2612
     60  O         35.6970   40.3340   55.6540 O.2   169  GLY169     -0.2717
     61  N         34.5510   39.5530   53.8750 N.am  170  ASP170     -0.1959
     62  CA        33.3090   40.2220   54.2640 C.3   170  ASP170      0.1840
     63  C         32.7030   39.6380   55.5410 C.2   170  ASP170      0.2623
     64  O         32.1540   40.3710   56.3670 O.2   170  ASP170     -0.2715
     65  CB        32.2790   40.1580   53.1280 C.3   170  ASP170      0.1450
     66  CG        32.1550   38.7680   52.5210 C.2   170  ASP170      0.3671
     67  OD1       33.1330   38.3070   51.8920 O.co2 170  ASP170     -0.2456
     68  OD2       31.0820   38.1390   52.6730 O.co2 170  ASP170     -0.2456
     69  N         32.8040   38.3230   55.7060 N.am  171  GLY171     -0.1940
     70  CA        32.2590   37.6930   56.8950 C.3   171  GLY171      0.2014
     71  C         32.9010   38.2210   58.1660 C.2   171  GLY171      0.2638
     72  O         32.2390   38.4080   59.1870 O.2   171  GLY171     -0.2714
     73  N         34.2040   38.4660   58.0980 N.am  172  ALA172     -0.1977
     74  CA        34.9550   38.9660   59.2420 C.3   172  ALA172      0.1597
     75  C         34.3960   40.2700   59.8130 C.2   172  ALA172      0.2287
     76  O         34.5090   40.5230   61.0120 O.2   172  ALA172     -0.2864
     77  CB        36.4220   39.1590   58.8490 C.3   172  ALA172      0.0319
     78  N         32.1750   40.1920   63.1300 N.3   175  GLU175     -0.1245
     79  CA        32.7090   39.8360   64.4430 C.3   175  GLU175      0.1567
     80  C         32.9130   41.0630   65.3240 C.2   175  GLU175      0.2260
     81  O         33.3290   42.1180   64.8490 O.2   175  GLU175     -0.2867
     82  CB        34.0400   39.0910   64.2900 C.3   175  GLU175      0.0388
     83  CG        33.8990   37.6800   63.7320 C.3   175  GLU175      0.1160
     84  CD        33.4600   36.6630   64.7800 C.2   175  GLU175      0.3649
     85  OE1       32.8750   37.0640   65.8100 O.co2 175  GLU175     -0.2457
     86  OE2       33.6930   35.4520   64.5640 O.co2 175  GLU175     -0.2457
     87  N         34.1210   39.1850   48.8110 N.3   199  ASN199     -0.1240
     88  CA        33.7080   38.3120   47.7200 C.3   199  ASN199      0.1653
     89  C         32.2230   37.9720   47.8430 C.2   199  ASN199      0.2266
     90  O         31.7380   37.0420   47.2070 O.2   199  ASN199     -0.2867
     91  CB        34.5440   37.0250   47.6640 C.3   199  ASN199      0.1155
     92  CG        34.6610   36.3320   49.0050 C.2   199  ASN199      0.2627
     93  OD1       33.7510   36.3900   49.8330 O.2   199  ASN199     -0.2716
     94  ND2       35.7860   35.6470   49.2190 N.am  199  ASN199     -0.0877
     95  N         30.5250   36.4780   50.0560 N.3   201  TYR201     -0.1227
     96  CA        30.1820   35.2210   50.7200 C.3   201  TYR201      0.1736
     97  C         31.1090   34.9240   51.8920 C.2   201  TYR201      0.2595
     98  O         32.2770   35.3120   51.8850 O.2   201  TYR201     -0.2718
     99  CB        30.2610   34.0440   49.7380 C.3   201  TYR201      0.0548
    100  CG        29.1980   34.0420   48.6640 C.ar  201  TYR201     -0.0200
    101  CD1       27.9450   33.4650   48.8910 C.ar  201  TYR201     -0.0009
    102  CD2       29.4400   34.6280   47.4220 C.ar  201  TYR201     -0.0009
    103  CE1       26.9580   33.4710   47.9020 C.ar  201  TYR201      0.0417
    104  CE2       28.4670   34.6420   46.4290 C.ar  201  TYR201      0.0417
    105  CZ        27.2300   34.0620   46.6730 C.ar  201  TYR201      0.1957
    106  OH        26.2750   34.0680   45.6830 O.3   201  TYR201     -0.2866
    107  N         30.5640   34.2380   52.8930 N.am  202  ALA202     -0.1966
    108  CA        31.3060   33.8100   54.0820 C.3   202  ALA202      0.1728
    109  C         30.9580   32.3250   54.0840 C.2   202  ALA202      0.2616
    110  O         30.0360   31.8830   54.7770 O.2   202  ALA202     -0.2715
    111  CB        30.7660   34.5010   55.3320 C.3   202  ALA202      0.0334
    112  N         31.7080   31.5750   53.2790 N.am  203  ILE203     -0.1977
    113  CA        31.4830   30.1500   53.0510 C.3   203  ILE203      0.1596
    114  C         30.1920   30.1060   52.2300 C.2   203  ILE203      0.2287
    115  O         30.2300   30.3310   51.0190 O.2   203  ILE203     -0.2864
    116  CB        31.3040   29.3180   54.3510 C.3   203  ILE203      0.0276
    117  CG1       32.5530   29.4240   55.2310 C.3   203  ILE203      0.0022
    118  CG2       31.0890   27.8380   53.9820 C.3   203  ILE203      0.0022
    119  CD1       32.5610   28.4670   56.4270 C.3   203  ILE203      0.0001
    120  N         35.2410   35.2080   44.5100 N.3   264  ARG264     -0.1245
    121  CA        35.9300   33.9630   44.8130 C.3   264  ARG264      0.1563
    122  C         35.5190   32.9600   43.7340 C.2   264  ARG264      0.2260
    123  O         34.4360   32.3850   43.8070 O.2   264  ARG264     -0.2867
    124  CB        35.4800   33.4810   46.1990 C.3   264  ARG264      0.0307
    125  CG        36.3040   32.3750   46.8240 C.3   264  ARG264      0.0489
    126  CD        35.4830   31.7100   47.9210 C.3   264  ARG264      0.2205
    127  NE        34.4100   30.9110   47.3350 N.pl3 264  ARG264     -0.0865
    128  CZ        33.2720   30.6020   47.9460 C.cat 264  ARG264      0.5346
    129  NH1       33.0360   31.0250   49.1790 N.pl3 264  ARG264      0.1354
    130  NH2       32.3680   29.8640   47.3170 N.pl3 264  ARG264      0.1354
    131  N         34.6730   27.8100   48.7270 N.3   268  HIS268     -0.1241
    132  CA        35.2110   28.4280   49.9290 C.3   268  HIS268      0.1621
    133  C         36.5620   27.7890   50.2590 C.2   268  HIS268      0.2264
    134  O         37.5360   28.4840   50.5490 O.2   268  HIS268     -0.2867
    135  CB        34.2720   28.2370   51.1180 C.3   268  HIS268      0.0745
    136  CG        34.8870   28.6380   52.4200 C.ar  268  HIS268      0.0817
    137  ND1       35.2290   29.9430   52.7070 N.ar  268  HIS268     -0.2268
    138  CD2       35.3020   27.9000   53.4760 C.ar  268  HIS268      0.1154
    139  CE1       35.8330   29.9890   53.8810 C.ar  268  HIS268      0.1986
    140  NE2       35.8910   28.7630   54.3680 N.ar  268  HIS268     -0.2212
@<TRIPOS>BOND
     1   122   123    2
     2   122   121    1
     3   120   121    1
     4   121   124    1
     5   106   105    1
     6   124   125    1
     7   104   105   ar
     8   104   102   ar
     9   105   103   ar
    10   125   126    1
    11    90    89    2
    12   130   128    1
    13   127   126    1
    14   127   128    2
    15   102   100   ar
    16    91    88    1
    17    91    92    1
    18    88    89    1
    19    88    87    1
    20   103   101   ar
    21   128   129    1
    22   100   101   ar
    23   100    99    1
    24   131   132    1
    25    92    94   am
    26    92    93    2
    27    34    33    1
    28    31    30    1
    29    31    32    1
    30    99    96    1
    31    28    27    2
    32   132   133    1
    33   132   135    1
    34    30    29    1
    35    95    96    1
    36   133   134    2
    37    33    32    2
    38    33    35    1
    39    96    97    1
    40   115   114    2
    41    27    26    1
    42   135   136    1
    43    29    26    1
    44    26    25    1
    45    98    97    2
    46    97   107   am
    47    67    66   ar
    48    12    11    1
    49   114   113    1
    50   136   137   ar
    51   136   138   ar
    52    66    68   ar
    53    66    65    1
    54   137   139   ar
    55   107   108    1
    56   113   112    1
    57   113   116    1
    58    65    62    1
    59    16    15    2
    60    25    15   am
    61    11     9   ar
    62    11    10   ar
    63   112   109   am
    64   138   140   ar
    65     9     7   ar
    66    15    14    1
    67    61    62    1
    68    61    59   am
    69   139   140   ar
    70   118   116    1
    71    10     8   ar
    72   108   109    1
    73   108   111    1
    74   109   110    2
    75    58    59    1
    76    58    57    1
    77    62    63    1
    78   116   117    1
    79    21    19   ar
    80    21    23   ar
    81    19    18   ar
    82    59    60    2
    83     7     6   ar
    84     4     3    2
    85     8     6   ar
    86   117   119    1
    87    14    17    1
    88    14    13    1
    89    24    23    1
    90    23    22   ar
    91     6     5    1
    92    63    69   am
    93    63    64    2
    94    18    17    1
    95    18    20   ar
    96    69    70    1
    97     3    13   am
    98     3     2    1
    99     1     2    1
   100    22    20   ar
   101     2     5    1
   102    70    71    1
   103    73    71   am
   104    73    74    1
   105    71    72    2
   106    77    74    1
   107    74    75    1
   108    56    54    1
   109    75    76    2
   110    54    53    1
   111    55    53    1
   112    53    50    1
   113    50    51    1
   114    50    49    1
   115    39    38    2
   116    41    40    1
   117    37    38    1
   118    37    36    1
   119    37    40    1
   120    51    52    2
   121    49    44   am
   122    38    42   am
   123    78    79    1
   124    45    44    2
   125    44    43    1
   126    83    82    1
   127    83    84    1
   128    42    43    1
   129    42    48    1
   130    82    79    1
   131    79    80    1
   132    43    46    1
   133    86    84   ar
   134    84    85   ar
   135    81    80    2
   136    48    47    1
   137    46    47    1
