@<TRIPOS>MOLECULE
tmp/1umgA00.pdb
 166 160 0 0 0
SMALL
GASTEIGER

@<TRIPOS>ATOM
      1  N         26.2880   57.2130   26.4740 N.3    10  ASP10      -0.1239
      2  CA        26.9800   58.4950   26.4720 C.3    10  ASP10       0.1674
      3  C         26.3120   59.3100   27.5780 C.2    10  ASP10       0.2266
      4  O         25.1150   59.5990   27.4990 O.2    10  ASP10      -0.2867
      5  CB        26.7760   59.1910   25.1210 C.3    10  ASP10       0.1410
      6  CG        27.6390   60.4320   24.9560 C.2    10  ASP10       0.3668
      7  OD1       27.8670   61.1520   25.9490 O.co2  10  ASP10      -0.2456
      8  OD2       28.0720   60.6960   23.8150 O.co2  10  ASP10      -0.2456
      9  N         32.1350   65.9800   21.9990 N.3    17  HIS17      -0.1241
     10  CA        31.8160   64.5500   21.9680 C.3    17  HIS17       0.1621
     11  C         33.1420   63.8190   21.7870 C.2    17  HIS17       0.2264
     12  O         33.2610   62.8890   20.9880 O.2    17  HIS17      -0.2867
     13  CB        30.8940   64.2650   20.7870 C.3    17  HIS17       0.0745
     14  CG        29.5440   64.9020   20.9070 C.ar   17  HIS17       0.0817
     15  ND1       28.5370   64.3750   21.6850 N.ar   17  HIS17      -0.2268
     16  CD2       29.0280   66.0170   20.3300 C.ar   17  HIS17       0.1154
     17  CE1       27.4590   65.1320   21.5810 C.ar   17  HIS17       0.1986
     18  NE2       27.7310   66.1340   20.7640 N.ar   17  HIS17      -0.2212
     19  N         33.2500   59.1740   23.5320 N.3    51  ASP51      -0.1225
     20  CA        32.3760   59.6980   24.5780 C.3    51  ASP51       0.1805
     21  C         31.3940   58.6620   25.1180 C.2    51  ASP51       0.2597
     22  O         30.3600   59.0150   25.6890 O.2    51  ASP51      -0.2718
     23  CB        31.6040   60.9260   24.0690 C.3    51  ASP51       0.1424
     24  CG        30.8180   60.6520   22.7950 C.2    51  ASP51       0.3668
     25  OD1       30.8120   59.5040   22.2970 O.co2  51  ASP51      -0.2456
     26  OD2       30.1960   61.6040   22.2810 O.co2  51  ASP51      -0.2456
     27  N         31.7230   57.3850   24.9540 N.am   52  ASP52      -0.1974
     28  CA        30.8440   56.3240   25.4290 C.3    52  ASP52       0.1709
     29  C         31.4110   55.5210   26.5870 C.2    52  ASP52       0.2293
     30  O         32.4420   54.8600   26.4620 O.2    52  ASP52      -0.2864
     31  CB        30.4820   55.4140   24.2610 C.3    52  ASP52       0.1436
     32  CG        29.6400   56.1340   23.2250 C.2    52  ASP52       0.3671
     33  OD1       28.4300   56.3260   23.4790 O.co2  52  ASP52      -0.2456
     34  OD2       30.1930   56.5350   22.1770 O.co2  52  ASP52      -0.2456
     35  N         30.1210   68.5100   28.3580 N.3    89  TYR89      -0.1241
     36  CA        29.2060   68.6610   27.2380 C.3    89  TYR89       0.1605
     37  C         28.3010   67.4390   27.1000 C.2    89  TYR89       0.2264
     38  O         28.7210   66.3090   27.3630 O.2    89  TYR89      -0.2867
     39  CB        29.9820   68.8720   25.9320 C.3    89  TYR89       0.0534
     40  CG        29.0830   69.2990   24.7980 C.ar   89  TYR89      -0.0201
     41  CD1       28.4490   70.5400   24.8270 C.ar   89  TYR89      -0.0009
     42  CD2       28.7920   68.4360   23.7450 C.ar   89  TYR89      -0.0009
     43  CE1       27.5500   70.9120   23.8380 C.ar   89  TYR89       0.0417
     44  CE2       27.8880   68.8000   22.7460 C.ar   89  TYR89       0.0417
     45  CZ        27.2710   70.0390   22.8050 C.ar   89  TYR89       0.1957
     46  OH        26.3670   70.4080   21.8380 O.3    89  TYR89      -0.2866
     47  N         23.5680   62.7910   27.9840 N.3    93  GLN93      -0.1245
     48  CA        23.1440   62.6630   26.5910 C.3    93  GLN93       0.1566
     49  C         22.1810   61.5210   26.2430 C.2    93  GLN93       0.2260
     50  O         21.0810   61.7650   25.7470 O.2    93  GLN93      -0.2867
     51  CB        24.3720   62.5580   25.6790 C.3    93  GLN93       0.0367
     52  CG        24.0110   62.5030   24.2020 C.3    93  GLN93       0.0905
     53  CD        25.1940   62.1740   23.3100 C.2    93  GLN93       0.2608
     54  OE1       26.1360   62.9570   23.1840 O.2    93  GLN93      -0.2717
     55  NE2       25.1490   61.0070   22.6850 N.am   93  GLN93      -0.0878
     56  N         23.3050   68.6280   20.3810 N.3   102  GLY102     -0.1210
     57  CA        22.5080   68.7250   19.1710 C.3   102  GLY102      0.1956
     58  C         22.1960   67.4270   18.4530 C.2   102  GLY102      0.2611
     59  O         21.4920   67.4420   17.4440 O.2   102  GLY102     -0.2717
     60  N         22.7080   66.3060   18.9520 N.am  103  ASN103     -0.1974
     61  CA        22.4470   65.0180   18.3130 C.3   103  ASN103      0.1688
     62  C         21.2530   64.3040   18.9460 C.2   103  ASN103      0.2292
     63  O         20.5750   64.8660   19.8060 O.2   103  ASN103     -0.2864
     64  CB        23.7060   64.1370   18.3540 C.3   103  ASN103      0.1181
     65  CG        24.2390   63.9220   19.7580 C.2   103  ASN103      0.2629
     66  OD1       24.1020   64.7840   20.6300 O.2   103  ASN103     -0.2716
     67  ND2       24.8770   62.7760   19.9790 N.am  103  ASN103     -0.0877
     68  N         33.0520   54.0240   18.7600 N.3   130  ASP130     -0.1225
     69  CA        32.4350   55.3330   18.9010 C.3   130  ASP130      0.1805
     70  C         32.4130   55.9990   17.5280 C.2   130  ASP130      0.2597
     71  O         33.3230   55.8170   16.7190 O.2   130  ASP130     -0.2718
     72  CB        33.2010   56.2170   19.8940 C.3   130  ASP130      0.1424
     73  CG        32.5560   57.5840   20.0620 C.2   130  ASP130      0.3668
     74  OD1       31.3190   57.6660   19.9160 O.co2 130  ASP130     -0.2456
     75  OD2       33.2700   58.5690   20.3450 O.co2 130  ASP130     -0.2456
     76  N         31.3430   56.7480   17.2780 N.am  131  LYS131     -0.1979
     77  CA        31.1400   57.4750   16.0300 C.3   131  LYS131      0.1596
     78  C         30.7780   56.6100   14.8200 C.2   131  LYS131      0.2287
     79  O         31.2240   56.8560   13.6980 O.2   131  LYS131     -0.2864
     80  CB        32.3590   58.3600   15.7250 C.3   131  LYS131      0.0298
     81  CG        32.6850   59.3770   16.8260 C.3   131  LYS131      0.0038
     82  CD        31.5590   60.3980   17.0380 C.3   131  LYS131      0.0206
     83  CE        31.9170   61.4320   18.1140 C.3   131  LYS131      0.1093
     84  NZ        31.9090   60.8680   19.5020 N.3   131  LYS131     -0.1314
     85  N         23.4090   54.3070   18.4210 N.3   228  ASP228     -0.1225
     86  CA        24.6410   54.1330   17.6550 C.3   228  ASP228      0.1805
     87  C         25.7880   53.7350   18.5810 C.2   228  ASP228      0.2597
     88  O         25.5560   53.3130   19.7160 O.2   228  ASP228     -0.2718
     89  CB        25.0000   55.4160   16.8860 C.3   228  ASP228      0.1424
     90  CG        25.2600   56.6010   17.7990 C.2   228  ASP228      0.3668
     91  OD1       25.4640   56.3920   19.0100 O.co2 228  ASP228     -0.2456
     92  OD2       25.2720   57.7460   17.2970 O.co2 228  ASP228     -0.2456
     93  N         27.0200   53.8670   18.0940 N.am  229  ASP229     -0.1974
     94  CA        28.2050   53.5180   18.8730 C.3   229  ASP229      0.1709
     95  C         28.0020   52.1340   19.4830 C.2   229  ASP229      0.2293
     96  O         27.8330   51.9810   20.6920 O.2   229  ASP229     -0.2864
     97  CB        28.4430   54.5840   19.9480 C.3   229  ASP229      0.1436
     98  CG        28.5800   55.9810   19.3520 C.2   229  ASP229      0.3671
     99  OD1       28.8460   56.0780   18.1350 O.co2 229  ASP229     -0.2456
    100  OD2       28.4380   56.9810   20.0870 O.co2 229  ASP229     -0.2456
    101  N         30.8390   58.9960   12.0140 N.3   259  TRP259     -0.1227
    102  CA        31.8340   60.0620   12.0690 C.3   259  TRP259      0.1737
    103  C         31.1400   61.3800   12.4350 C.2   259  TRP259      0.2595
    104  O         30.1890   61.3860   13.2130 O.2   259  TRP259     -0.2718
    105  CB        32.5590   60.1760   10.7170 C.3   259  TRP259      0.0564
    106  CG        33.9730   60.6930   10.8080 C.ar  259  TRP259      0.0003
    107  CD1       34.6050   61.1870   11.9150 C.ar  259  TRP259      0.0946
    108  CD2       34.9220   60.7840    9.7320 C.ar  259  TRP259      0.0152
    109  NE1       35.8870   61.5790   11.5960 N.ar  259  TRP259     -0.2442
    110  CE2       36.1050   61.3430   10.2670 C.ar  259  TRP259      0.0810
    111  CE3       34.8800   60.4470    8.3730 C.ar  259  TRP259      0.0012
    112  CZ2       37.2460   61.5740    9.4810 C.ar  259  TRP259      0.0191
    113  CZ3       36.0130   60.6760    7.5920 C.ar  259  TRP259      0.0001
    114  CH2       37.1790   61.2370    8.1500 C.ar  259  TRP259      0.0015
    115  N         31.6030   62.4920   11.8690 N.am  260  MET260     -0.1965
    116  CA        31.0220   63.8010   12.1760 C.3   260  MET260      0.1736
    117  C         29.5050   63.9010   12.0090 C.2   260  MET260      0.2616
    118  O         28.9550   63.5730   10.9530 O.2   260  MET260     -0.2715
    119  CB        31.6960   64.8860   11.3240 C.3   260  MET260      0.0427
    120  CG        31.1340   66.3070   11.4990 C.3   260  MET260      0.0599
    121  SD        31.2900   67.0250   13.1500 S.3   260  MET260     -0.1393
    122  CE        33.0800   67.0380   13.3520 C.3   260  MET260      0.0692
    123  N         28.8410   64.3630   13.0650 N.am  261  ARG261     -0.1963
    124  CA        27.3920   64.5580   13.0590 C.3   261  ARG261      0.1729
    125  C         26.5970   63.3530   12.5720 C.2   261  ARG261      0.2616
    126  O         25.4950   63.4990   12.0430 O.2   261  ARG261     -0.2715
    127  CB        27.0580   65.7920   12.2120 C.3   261  ARG261      0.0348
    128  CG        27.5940   67.0860   12.8180 C.3   261  ARG261      0.0492
    129  CD        27.5810   68.2580   11.8400 C.3   261  ARG261      0.2205
    130  NE        28.2240   69.4300   12.4270 N.pl3 261  ARG261     -0.0865
    131  CZ        27.6520   70.2320   13.3200 C.cat 261  ARG261      0.5346
    132  NH1       26.4140   69.9920   13.7350 N.pl3 261  ARG261      0.1354
    133  NH2       28.3200   71.2650   13.8110 N.pl3 261  ARG261      0.1354
    134  N         27.1570   62.1600   12.7690 N.am  262  GLY262     -0.1955
    135  CA        26.4920   60.9410   12.3410 C.3   262  GLY262      0.1869
    136  C         25.9730   61.0430   10.9220 C.2   262  GLY262      0.2309
    137  O         24.9450   60.4530   10.5850 O.2   262  GLY262     -0.2863
    138  N         35.7560   64.8220   14.5840 N.3   282  ASP282     -0.1239
    139  CA        35.0530   64.0140   15.5860 C.3   282  ASP282      0.1674
    140  C         35.2680   62.5250   15.3350 C.2   282  ASP282      0.2266
    141  O         34.3460   61.7160   15.4490 O.2   282  ASP282     -0.2867
    142  CB        33.5500   64.3310   15.6010 C.3   282  ASP282      0.1410
    143  CG        33.2210   65.6140   16.3550 C.2   282  ASP282      0.3668
    144  OD1       34.1100   66.1650   17.0440 O.co2 282  ASP282     -0.2456
    145  OD2       32.0590   66.0690   16.2670 O.co2 282  ASP282     -0.2456
    146  N         22.0420   62.0620   10.3010 N.3   342  GLU342     -0.1231
    147  CA        21.5230   62.3710   11.6320 C.3   342  GLU342      0.1699
    148  C         21.1650   63.8550   11.6950 C.2   342  GLU342      0.2592
    149  O         20.2520   64.2550   12.4200 O.2   342  GLU342     -0.2718
    150  CB        22.5570   62.0230   12.7050 C.3   342  GLU342      0.0402
    151  CG        22.1950   62.4810   14.1120 C.3   342  GLU342      0.1161
    152  CD        23.1010   61.8750   15.1730 C.2   342  GLU342      0.3649
    153  OE1       24.2680   61.5710   14.8520 O.co2 342  GLU342     -0.2457
    154  OE2       22.6510   61.7110   16.3280 O.co2 342  GLU342     -0.2457
    155  N         21.9010   64.6620   10.9350 N.am  343  TYR343     -0.1976
    156  CA        21.6690   66.1050   10.8570 C.3   343  TYR343      0.1639
    157  C         21.3430   66.4490    9.4090 C.2   343  TYR343      0.2290
    158  O         21.9630   65.9130    8.4920 O.2   343  TYR343     -0.2864
    159  CB        22.9210   66.9030   11.2380 C.3   343  TYR343      0.0560
    160  CG        23.3320   66.8750   12.6930 C.ar  343  TYR343     -0.0198
    161  CD1       23.4250   68.0600   13.4260 C.ar  343  TYR343     -0.0009
    162  CD2       23.7140   65.6850   13.3130 C.ar  343  TYR343     -0.0009
    163  CE1       23.8960   68.0630   14.7350 C.ar  343  TYR343      0.0417
    164  CE2       24.1870   65.6770   14.6210 C.ar  343  TYR343      0.0417
    165  CZ        24.2760   66.8680   15.3240 C.ar  343  TYR343      0.1957
    166  OH        24.7710   66.8670   16.6050 O.3   343  TYR343     -0.2866
@<TRIPOS>BOND
     1   113   114   ar
     2   113   111   ar
     3   114   112   ar
     4   111   108   ar
     5   158   157    2
     6   157   156    1
     7   112   110   ar
     8   108   110   ar
     9   108   106   ar
    10   110   109   ar
    11   146   147    1
    12   137   136    2
    13   105   106    1
    14   105   102    1
    15   106   107   ar
    16   156   155    1
    17   156   159    1
    18   136   135    1
    19   155   148   am
    20   118   117    2
    21   159   160    1
    22   119   120    1
    23   119   116    1
    24   120   121    1
    25   109   107   ar
    26   147   148    1
    27   147   150    1
    28   148   149    2
    29   129   130    1
    30   129   128    1
    31   115   116    1
    32   115   103   am
    33   117   116    1
    34   117   123   am
    35   101   102    1
    36   126   125    2
    37   102   103    1
    38   127   128    1
    39   127   124    1
    40   135   134    1
    41   130   131    2
    42   103   104    2
    43   125   134   am
    44   125   124    1
    45   160   162   ar
    46   160   161   ar
    47   150   151    1
    48   124   123    1
    49   121   122    1
    50   162   164   ar
    51   131   132    1
    52   131   133    1
    53   161   163   ar
    54    79    78    2
    55   151   152    1
    56   138   139    1
    57   164   165   ar
    58   163   165   ar
    59    78    77    1
    60   153   152   ar
    61   152   154   ar
    62   165   166    1
    63   140   141    2
    64   140   139    1
    65   139   142    1
    66   142   143    1
    67    80    77    1
    68    80    81    1
    69    77    76    1
    70   145   143   ar
    71   143   144   ar
    72    71    70    2
    73    81    82    1
    74    89    86    1
    75    89    90    1
    76    82    83    1
    77    76    70   am
    78    92    90   ar
    79    59    58    2
    80    70    69    1
    81    86    85    1
    82    86    87    1
    83    90    91   ar
    84    93    87   am
    85    93    94    1
    86    83    84    1
    87    99    98   ar
    88    61    64    1
    89    61    62    1
    90    61    60    1
    91    64    65    1
    92    58    60   am
    93    58    57    1
    94    87    88    2
    95    68    69    1
    96    94    95    1
    97    94    97    1
    98    69    72    1
    99    62    63    2
   100    57    56    1
   101    98    97    1
   102    98   100   ar
   103    95    96    2
   104    65    67   am
   105    65    66    2
   106    72    73    1
   107    74    73   ar
   108    73    75   ar
   109    16    18   ar
   110    16    14   ar
   111    18    17   ar
   112    13    14    1
   113    13    10    1
   114    14    15   ar
   115    12    11    2
   116    17    15   ar
   117    11    10    1
   118    46    45    1
   119    10     9    1
   120    34    32   ar
   121    26    24   ar
   122    25    24   ar
   123    55    53   am
   124    44    45   ar
   125    44    42   ar
   126    24    23    1
   127    45    43   ar
   128    54    53    2
   129    32    33   ar
   130    32    31    1
   131    53    52    1
   132    19    20    1
   133    42    40   ar
   134     8     6   ar
   135    43    41   ar
   136    23    20    1
   137    52    51    1
   138    31    28    1
   139    20    21    1
   140    40    41   ar
   141    40    39    1
   142    27    21   am
   143    27    28    1
   144     6     5    1
   145     6     7   ar
   146    21    22    2
   147     5     2    1
   148    28    29    1
   149    51    48    1
   150    50    49    2
   151    39    36    1
   152    49    48    1
   153    30    29    2
   154     2     1    1
   155     2     3    1
   156    48    47    1
   157    37    36    1
   158    37    38    2
   159    36    35    1
   160     4     3    2
