@<TRIPOS>MOLECULE
tmp/1umsA00.pdb
 176 176 0 0 0
SMALL
GASTEIGER

@<TRIPOS>ATOM
      1  N         -1.4230   11.9850    6.9440 N.3    73  TYR73      -0.1228
      2  CA        -0.2550   11.7880    7.7730 C.3    73  TYR73       0.1721
      3  C          0.8510   12.7800    7.3520 C.2    73  TYR73       0.2434
      4  O          0.6670   13.5620    6.4200 O.2    73  TYR73      -0.2733
      5  CB         0.1990   10.3190    7.6300 C.3    73  TYR73       0.0547
      6  CG        -0.8080    9.2390    8.0010 C.ar   73  TYR73      -0.0200
      7  CD1       -2.1220    9.5360    8.4230 C.ar   73  TYR73      -0.0009
      8  CD2       -0.4290    7.8930    7.8580 C.ar   73  TYR73      -0.0009
      9  CE1       -3.1060    8.5350    8.4110 C.ar   73  TYR73       0.0417
     10  CE2       -1.3960    6.8790    7.9290 C.ar   73  TYR73       0.0417
     11  CZ        -2.7520    7.2140    8.0980 C.ar   73  TYR73       0.1957
     12  OH        -3.7270    6.2710    7.9620 O.3    73  TYR73      -0.2866
     13  N          1.9730   12.8180    8.0860 N.am   74  PRO74      -0.2774
     14  CA         2.7450   14.0460    8.2480 C.3    74  PRO74       0.1083
     15  C          3.8870   14.5080    7.3560 C.3    74  PRO74       0.2017
     16  O          4.6110   15.3150    7.9440 O.3    74  PRO74      -0.2186
     17  CB         3.4860   13.8310    9.5690 C.3    74  PRO74       0.0243
     18  CG         2.6210   12.9220   10.3960 C.3    74  PRO74       0.0233
     19  CD         2.1240   12.0040    9.2950 C.3    74  PRO74       0.0935
     20  N          6.8450   13.6180    7.2910 N.3    76  ASP76      -0.1239
     21  CA         7.8760   13.7130    8.3340 C.3    76  ASP76       0.1674
     22  C          9.3320   13.6790    7.8330 C.2    76  ASP76       0.2266
     23  O         10.2220   13.7120    8.6840 O.2    76  ASP76      -0.2867
     24  CB         7.6370   12.6660    9.4500 C.3    76  ASP76       0.1410
     25  CG         6.6560   11.5420    9.1320 C.2    76  ASP76       0.3668
     26  OD1        6.7540   11.0200    8.0060 O.co2  76  ASP76      -0.2456
     27  OD2        5.8480   11.2040   10.0260 O.co2  76  ASP76      -0.2456
     28  N         10.3950    7.9470    9.3710 N.3    80  ASN80      -0.1225
     29  CA         9.1460    7.7650   10.0040 C.3    80  ASN80       0.1785
     30  C          8.1890    7.1070    9.1190 C.2    80  ASN80       0.2597
     31  O          8.6520    6.3100    8.3120 O.2    80  ASN80      -0.2718
     32  CB         8.6190    9.0980   10.6300 C.3    80  ASN80       0.1169
     33  CG         9.5040    9.6480   11.7540 C.2    80  ASN80       0.2627
     34  OD1       10.4190    8.9760   12.2260 O.2    80  ASN80      -0.2716
     35  ND2        9.2170   10.8760   12.1920 N.am   80  ASN80      -0.0877
     36  N          6.8970    7.4260    9.2650 N.am   81  VAL81      -0.1966
     37  CA         6.0370    6.8600    8.2940 C.3    81  VAL81       0.1727
     38  C          6.0660    7.8710    7.1840 C.2    81  VAL81       0.2616
     39  O          6.9980    8.6830    7.0340 O.2    81  VAL81      -0.2715
     40  CB         4.6620    6.3960    8.7380 C.3    81  VAL81       0.0290
     41  CG1        5.0060    5.2360    9.6690 C.3    81  VAL81       0.0023
     42  CG2        3.8360    7.5730    9.2050 C.3    81  VAL81       0.0023
     43  N          5.0410    7.7380    6.3660 N.am   82  LEU82      -0.1963
     44  CA         5.0730    8.4890    5.1780 C.3    82  LEU82       0.1728
     45  C          3.8830    8.5900    4.2770 C.2    82  LEU82       0.2616
     46  O          3.8130    9.5440    3.4980 O.2    82  LEU82      -0.2715
     47  CB         6.1380    7.7330    4.3960 C.3    82  LEU82       0.0311
     48  CG         6.4720    6.2270    4.8510 C.3    82  LEU82       0.0022
     49  CD1        7.7100    5.9540    5.7280 C.3    82  LEU82       0.0001
     50  CD2        5.4150    5.2380    5.4440 C.3    82  LEU82       0.0001
     51  N          3.0160    7.5920    4.3210 N.am   83  ALA83      -0.1977
     52  CA         1.9470    7.6400    3.3310 C.3    83  ALA83       0.1597
     53  C          0.8730    8.5090    3.8950 C.2    83  ALA83       0.2287
     54  O          0.5130    8.2970    5.0510 O.2    83  ALA83      -0.2864
     55  CB         1.3630    6.2960    2.9370 C.3    83  ALA83       0.0319
     56  N         13.8390    0.1550    8.0850 N.3   109  THR109     -0.1203
     57  CA        12.8840    0.9150    7.3720 C.3   109  THR109      0.1994
     58  C         13.5610    2.2740    7.2470 C.2   109  THR109      0.2618
     59  O         14.1210    2.5630    6.1910 O.2   109  THR109     -0.2717
     60  CB        11.5000    0.9240    8.0250 C.3   109  THR109      0.1784
     61  OG1       10.7530    1.9710    7.4400 O.3   109  THR109     -0.2211
     62  CG2       11.4710    1.0820    9.5450 C.3   109  THR109      0.0376
     63  N         13.4970    3.1150    8.2960 N.am  110  GLY110     -0.1956
     64  CA        13.9410    4.4920    8.2800 C.3   110  GLY110      0.1869
     65  C         12.5250    4.7530    7.8580 C.2   110  GLY110      0.2309
     66  O         11.6090    4.8960    8.6730 O.2   110  GLY110     -0.2863
     67  N          6.0120   -0.2500    2.9680 N.3   115  LEU115     -0.1231
     68  CA         4.8040   -0.2430    3.8070 C.3   115  LEU115      0.1693
     69  C          3.9000    0.9060    3.4140 C.2   115  LEU115      0.2591
     70  O          2.7050    0.6550    3.4440 O.2   115  LEU115     -0.2718
     71  CB         5.0240   -0.3040    5.3230 C.3   115  LEU115      0.0284
     72  CG         4.8740   -1.7330    5.8610 C.3   115  LEU115      0.0019
     73  CD1        6.2430   -2.4080    5.9330 C.3   115  LEU115      0.0001
     74  CD2        4.2450   -1.6880    7.2520 C.3   115  LEU115      0.0001
     75  N          4.3570    2.1140    3.0290 N.am  116  VAL116     -0.1980
     76  CA         3.4170    3.0870    2.5030 C.3   116  VAL116      0.1595
     77  C          2.5450    2.3980    1.4670 C.2   116  VAL116      0.2287
     78  O          1.3450    2.6340    1.4310 O.2   116  VAL116     -0.2864
     79  CB         4.1040    4.2020    1.7230 C.3   116  VAL116      0.0276
     80  CG1        4.6650    5.1970    2.6560 C.3   116  VAL116      0.0022
     81  CG2        5.2570    3.8160    0.8260 C.3   116  VAL116      0.0022
     82  N          0.1820   -0.3540    3.5700 N.3   119  HIS119     -0.1241
     83  CA        -0.7920    0.4930    4.2010 C.3   119  HIS119      0.1621
     84  C         -1.7570    1.0520    3.1700 C.2   119  HIS119      0.2264
     85  O         -2.9320    0.7800    3.3270 O.2   119  HIS119     -0.2867
     86  CB        -0.0580    1.5910    4.9530 C.3   119  HIS119      0.0745
     87  CG        -0.9690    2.5910    5.6020 C.ar  119  HIS119      0.0817
     88  ND1       -1.3390    3.7260    4.8930 N.ar  119  HIS119     -0.2268
     89  CD2       -1.5230    2.5570    6.8490 C.ar  119  HIS119      0.1154
     90  CE1       -2.1150    4.3200    5.8040 C.ar  119  HIS119      0.1986
     91  NE2       -2.2770    3.7190    6.9930 N.ar  119  HIS119     -0.2212
     92  N         -5.1420   -0.4590    2.5350 N.3   123  HIS123     -0.1241
     93  CA        -6.0770    0.5680    3.0260 C.3   123  HIS123      0.1621
     94  C         -7.2280    0.7180    2.0440 C.2   123  HIS123      0.2264
     95  O         -8.3770    0.6060    2.4690 O.2   123  HIS123     -0.2867
     96  CB        -5.4770    1.9770    3.2320 C.3   123  HIS123      0.0745
     97  CG        -5.2580    2.3660    4.6760 C.ar  123  HIS123      0.0817
     98  ND1       -5.5350    3.6790    5.0320 N.ar  123  HIS123     -0.2268
     99  CD2       -4.8600    1.6210    5.7580 C.ar  123  HIS123      0.1154
    100  CE1       -5.3210    3.6190    6.3470 C.ar  123  HIS123      0.1986
    101  NE2       -4.9140    2.4550    6.8780 N.ar  123  HIS123     -0.2212
    102  N         -7.2130   -0.8110    8.7650 N.3   129  HIS129     -0.1241
    103  CA        -7.1410   -0.6390   10.2250 C.3   129  HIS129      0.1621
    104  C         -7.5840   -1.8560   11.0630 C.2   129  HIS129      0.2264
    105  O         -8.7020   -2.3530   10.9470 O.2   129  HIS129     -0.2867
    106  CB        -7.9300    0.6150   10.6210 C.3   129  HIS129      0.0745
    107  CG        -7.2260    1.8800   10.1880 C.ar  129  HIS129      0.0817
    108  ND1       -7.9230    2.8260    9.4520 N.ar  129  HIS129     -0.2268
    109  CD2       -5.9300    2.2700   10.4140 C.ar  129  HIS129      0.1154
    110  CE1       -6.9650    3.7430    9.2740 C.ar  129  HIS129      0.1986
    111  NE2       -5.7500    3.5040    9.7900 N.ar  129  HIS129     -0.2212
    112  N         -0.9160   -5.5650    7.9190 N.3   136  LEU136     -0.1231
    113  CA        -0.5800   -4.2950    7.3270 C.3   136  LEU136      0.1693
    114  C         -0.9570   -3.2420    8.3780 C.2   136  LEU136      0.2592
    115  O         -0.5560   -2.0850    8.2610 O.2   136  LEU136     -0.2718
    116  CB        -1.3690   -4.1090    6.0270 C.3   136  LEU136      0.0284
    117  CG        -0.5940   -4.6760    4.8430 C.3   136  LEU136      0.0019
    118  CD1       -0.3460   -6.1710    4.9950 C.3   136  LEU136      0.0001
    119  CD2       -1.3630   -4.4360    3.5400 C.3   136  LEU136      0.0001
    120  N         -1.7070   -3.6690    9.4150 N.am  137  MET137     -0.1965
    121  CA        -2.2230   -2.8290   10.4570 C.3   137  MET137      0.1736
    122  C         -1.2630   -2.8280   11.6380 C.2   137  MET137      0.2616
    123  O         -1.3780   -1.9140   12.4450 O.2   137  MET137     -0.2715
    124  CB        -3.6160   -3.3270   10.8140 C.3   137  MET137      0.0427
    125  CG        -4.6020   -2.9530    9.6990 C.3   137  MET137      0.0599
    126  SD        -4.2650   -3.5180    8.0170 S.3   137  MET137     -0.1393
    127  CE        -3.8400   -1.9420    7.2110 C.3   137  MET137      0.0692
    128  N         -0.3310   -3.8000   11.7400 N.am  138  TYR138     -0.1960
    129  CA         0.7070   -3.7690   12.7810 C.3   138  TYR138      0.1756
    130  C          1.4320   -2.4100   12.6690 C.2   138  TYR138      0.2461
    131  O          2.1290   -2.2070   11.6740 O.2   138  TYR138     -0.2730
    132  CB         1.7180   -4.9020   12.5660 C.3   138  TYR138      0.0574
    133  CG         3.0580   -4.6680   13.2460 C.ar  138  TYR138     -0.0198
    134  CD1        3.1280   -4.5430   14.6460 C.ar  138  TYR138     -0.0009
    135  CD2        4.1960   -4.3890   12.4640 C.ar  138  TYR138     -0.0009
    136  CE1        4.3250   -4.1350   15.2580 C.ar  138  TYR138      0.0417
    137  CE2        5.3820   -3.9490   13.0750 C.ar  138  TYR138      0.0417
    138  CZ         5.4490   -3.8240   14.4720 C.ar  138  TYR138      0.1957
    139  OH         6.6040   -3.3960   15.0610 O.3   138  TYR138     -0.2866
    140  N          1.2070   -1.4350   13.5740 N.am  139  PRO139     -0.2716
    141  CA         1.1120   -0.0690   13.0820 C.3   139  PRO139      0.1536
    142  C          2.3510    0.7950   13.1970 C.2   139  PRO139      0.2598
    143  O          2.3010    1.9130   13.7080 O.2   139  PRO139     -0.2715
    144  CB        -0.0230    0.5770   13.8410 C.3   139  PRO139      0.0310
    145  CG         0.0020   -0.1460   15.1870 C.3   139  PRO139      0.0237
    146  CD         0.4710   -1.5580   14.8290 C.3   139  PRO139      0.0939
    147  N          3.4640    0.3050   12.6800 N.am  140  LEU140     -0.1964
    148  CA         4.6280    1.1430   12.5980 C.3   140  LEU140      0.1728
    149  C          5.7500    0.3410   12.0110 C.2   140  LEU140      0.2616
    150  O          6.3260   -0.5560   12.6250 O.2   140  LEU140     -0.2715
    151  CB         5.1980    1.7930   13.8500 C.3   140  LEU140      0.0311
    152  CG         6.2120    2.9140   13.4420 C.3   140  LEU140      0.0022
    153  CD1        7.5730    2.4690   13.9870 C.3   140  LEU140      0.0001
    154  CD2        6.4220    3.3160   11.9260 C.3   140  LEU140      0.0001
    155  N          6.0070    0.7830   10.8000 N.am  141  TYR141     -0.1960
    156  CA         7.0860    0.4110    9.9160 C.3   141  TYR141      0.1771
    157  C          8.3380    0.0240   10.7400 C.2   141  TYR141      0.2619
    158  O          9.0860    0.8580   11.2410 O.2   141  TYR141     -0.2715
    159  CB         7.3590    1.6000    8.9780 C.3   141  TYR141      0.0574
    160  CG         7.8560    1.2260    7.6150 C.ar  141  TYR141     -0.0198
    161  CD1        8.5080   -0.0030    7.3940 C.ar  141  TYR141     -0.0009
    162  CD2        7.5250    2.0480    6.5260 C.ar  141  TYR141     -0.0009
    163  CE1        8.8660   -0.3920    6.1080 C.ar  141  TYR141      0.0417
    164  CE2        7.7200    1.5690    5.2390 C.ar  141  TYR141      0.0417
    165  CZ         8.4190    0.3660    5.0300 C.ar  141  TYR141      0.1957
    166  OH         8.6340   -0.1220    3.7900 O.3   141  TYR141     -0.2866
    167  N          8.4710   -1.2930   10.8620 N.am  142  HIS142     -0.1973
    168  CA         9.4290   -2.2400   11.4390 C.3   142  HIS142      0.1656
    169  C          8.7920   -3.5910   11.1480 C.2   142  HIS142      0.2291
    170  O          8.7220   -4.4880   11.9890 O.2   142  HIS142     -0.2864
    171  CB         9.5250   -2.1260   12.9550 C.3   142  HIS142      0.0771
    172  CG        10.1960   -0.8840   13.4730 C.ar  142  HIS142      0.0820
    173  ND1       11.3930   -0.4270   12.9280 N.ar  142  HIS142     -0.2267
    174  CD2        9.8360   -0.0600   14.5070 C.ar  142  HIS142      0.1154
    175  CE1       11.7030    0.6560   13.6410 C.ar  142  HIS142      0.1986
    176  NE2       10.7960    0.9270   14.5940 N.ar  142  HIS142     -0.2212
@<TRIPOS>BOND
     1    81    79    1
     2    78    77    2
     3    77    76    1
     4    79    76    1
     5    79    80    1
     6    94    95    2
     7    94    93    1
     8    76    75    1
     9    92    93    1
    10    55    52    1
    11    67    68    1
    12    93    96    1
    13    75    69   am
    14    84    85    2
    15    84    83    1
    16    96    97    1
    17    52    53    1
    18    52    51    1
    19    69    70    2
    20    69    68    1
    21    46    45    2
    22   119   117    1
    23    82    83    1
    24   166   165    1
    25    68    71    1
    26    53    54    2
    27    83    86    1
    28    45    51   am
    29    45    44    1
    30    47    48    1
    31    47    44    1
    32    97    98   ar
    33    97    99   ar
    34   117   118    1
    35   117   116    1
    36    48    50    1
    37    48    49    1
    38    88    87   ar
    39    88    90   ar
    40    86    87    1
    41   165   164   ar
    42   165   163   ar
    43    98   100   ar
    44    44    43    1
    45   164   162   ar
    46    71    72    1
    47    87    89   ar
    48    99   101   ar
    49    90    91   ar
    50    72    73    1
    51    72    74    1
    52   116   113    1
    53   163   161   ar
    54    59    58    2
    55   100   101   ar
    56    43    38   am
    57     4     3    2
    58   162   160   ar
    59    89    91   ar
    60     1     2    1
    61    39    38    2
    62    38    37    1
    63   127   126    1
    64    58    57    1
    65    58    63   am
    66    20    21    1
    67   113   112    1
    68   113   114    1
    69     3     2    1
    70     3    13   am
    71    15    16    1
    72    15    14    1
    73    57    60    1
    74    57    56    1
    75   161   160   ar
    76    61    60    1
    77   160   159    1
    78     5     2    1
    79     5     6    1
    80    22    21    1
    81    22    23    2
    82    65    64    1
    83    65    66    2
    84     8    10   ar
    85     8     6   ar
    86    10    11   ar
    87    12    11    1
    88     6     7   ar
    89    26    25   ar
    90   126   125    1
    91    60    62    1
    92    13    14    1
    93    13    19    1
    94    11     9   ar
    95    14    17    1
    96   115   114    2
    97    64    63    1
    98    37    40    1
    99    37    36    1
   100    31    30    2
   101    21    24    1
   102   114   120   am
   103     9     7   ar
   104    40    42    1
   105    40    41    1
   106   102   103    1
   107   159   156    1
   108    30    36   am
   109    30    29    1
   110    25    24    1
   111    25    27   ar
   112   110   108   ar
   113   110   111   ar
   114    19    18    1
   115    28    29    1
   116   120   121    1
   117   108   107   ar
   118    17    18    1
   119   125   124    1
   120   111   109   ar
   121   156   157    1
   122   156   155    1
   123    29    32    1
   124   107   109   ar
   125   107   106    1
   126   103   106    1
   127   103   104    1
   128   121   124    1
   129   121   122    1
   130    32    33    1
   131   157   167   am
   132   157   158    2
   133   155   149   am
   134   167   168    1
   135   105   104    2
   136   169   168    1
   137   169   170    2
   138   168   171    1
   139   122   128   am
   140   122   123    2
   141   131   130    2
   142   128   129    1
   143    33    35   am
   144    33    34    2
   145   154   152    1
   146   149   148    1
   147   149   150    2
   148   135   137   ar
   149   135   133   ar
   150   132   129    1
   151   132   133    1
   152   148   147    1
   153   148   151    1
   154   130   129    1
   155   130   140   am
   156   147   142   am
   157   173   172   ar
   158   173   175   ar
   159   171   172    1
   160   137   138   ar
   161   141   142    1
   162   141   140    1
   163   141   144    1
   164   142   143    2
   165   133   134   ar
   166   152   151    1
   167   152   153    1
   168   172   174   ar
   169   140   146    1
   170   175   176   ar
   171   144   145    1
   172   138   139    1
   173   138   136   ar
   174   174   176   ar
   175   134   136   ar
   176   146   145    1
