@<TRIPOS>MOLECULE
tmp/1umzA01.pdb
 124 115 0 0 0
SMALL
GASTEIGER

@<TRIPOS>ATOM
      1  N         59.7770   51.8710   14.7470 N.3    80  GLU80      -0.1245
      2  CA        59.2420   51.1500   13.6020 C.3    80  GLU80       0.1567
      3  C         58.0910   51.9250   12.9770 C.2    80  GLU80       0.2260
      4  O         57.2830   52.5300   13.6590 O.2    80  GLU80      -0.2867
      5  CB        58.8100   49.7550   14.0700 C.3    80  GLU80       0.0388
      6  CG        58.0980   48.8870   13.0880 C.3    80  GLU80       0.1160
      7  CD        57.8440   47.4810   13.6090 C.2    80  GLU80       0.3649
      8  OE1       58.3190   47.0910   14.7060 O.co2  80  GLU80      -0.2457
      9  OE2       57.1420   46.7550   12.9100 O.co2  80  GLU80      -0.2457
     10  N         55.1520   51.0060   10.1180 N.3    82  ASP82      -0.1239
     11  CA        54.5760   49.7830    9.5030 C.3    82  ASP82       0.1674
     12  C         53.4300   50.0080    8.5330 C.2    82  ASP82       0.2266
     13  O         52.4490   50.7100    8.8640 O.2    82  ASP82      -0.2867
     14  CB        53.9560   48.8510   10.5410 C.3    82  ASP82       0.1410
     15  CG        54.9190   48.3540   11.5520 C.2    82  ASP82       0.3668
     16  OD1       56.0190   47.8550   11.1870 O.co2  82  ASP82      -0.2456
     17  OD2       54.6450   48.4300   12.7680 O.co2  82  ASP82      -0.2456
     18  N         50.9480   47.0220    7.1070 N.3    84  GLU84      -0.1245
     19  CA        50.5990   45.6150    7.2350 C.3    84  GLU84       0.1567
     20  C         49.2740   45.3990    6.5300 C.2    84  GLU84       0.2260
     21  O         48.2320   45.9410    6.9340 O.2    84  GLU84      -0.2867
     22  CB        50.5610   45.1700    8.7130 C.3    84  GLU84       0.0388
     23  CG        51.9500   45.0700    9.2840 C.3    84  GLU84       0.1160
     24  CD        51.9990   44.9840   10.7930 C.2    84  GLU84       0.3649
     25  OE1       51.7620   46.0350   11.4390 O.co2  84  GLU84      -0.2457
     26  OE2       52.2740   43.8710   11.3070 O.co2  84  GLU84      -0.2457
     27  N         46.6210   48.1180    7.5150 N.3    97  GLN97      -0.1245
     28  CA        46.9570   48.5850    8.8640 C.3    97  GLN97       0.1566
     29  C         48.2830   49.3170    8.8700 C.2    97  GLN97       0.2260
     30  O         49.2780   48.8390    8.2890 O.2    97  GLN97      -0.2867
     31  CB        46.9850   47.4330    9.8320 C.3    97  GLN97       0.0367
     32  CG        47.2470   47.8890   11.3050 C.3    97  GLN97       0.0905
     33  CD        47.3120   46.7790   12.2360 C.2    97  GLN97       0.2608
     34  OE1       46.2770   46.2680   12.6460 O.2    97  GLN97      -0.2717
     35  NE2       48.5290   46.3400   12.5760 N.am   97  GLN97      -0.0878
     36  N         51.0180   51.4390   11.6850 N.3    99  ASN99      -0.1240
     37  CA        51.4180   51.4800   13.1020 C.3    99  ASN99       0.1653
     38  C         52.7410   52.2210   13.2020 C.2    99  ASN99       0.2266
     39  O         53.4960   52.3000   12.2350 O.2    99  ASN99      -0.2867
     40  CB        51.5160   50.0860   13.6790 C.3    99  ASN99       0.1155
     41  CG        51.3280   50.0400   15.2120 C.2    99  ASN99       0.2627
     42  OD1       51.2130   51.0810   15.8730 O.2    99  ASN99      -0.2716
     43  ND2       51.3220   48.8480   15.7540 N.am   99  ASN99      -0.0877
     44  N         55.9130   52.5310   16.1070 N.3   101  PHE101     -0.1241
     45  CA        56.5700   52.2680   17.3910 C.3   101  PHE101      0.1605
     46  C         57.6100   53.3290   17.6740 C.2   101  PHE101      0.2264
     47  O         58.4220   53.6360   16.8180 O.2   101  PHE101     -0.2867
     48  CB        57.2660   50.8970   17.4120 C.3   101  PHE101      0.0534
     49  CG        56.3260   49.7220   17.3640 C.ar  101  PHE101     -0.0203
     50  CD1       55.6290   49.4270   16.2160 C.ar  101  PHE101     -0.0042
     51  CD2       56.1760   48.8850   18.4650 C.ar  101  PHE101     -0.0042
     52  CE1       54.7670   48.3240   16.1680 C.ar  101  PHE101     -0.0003
     53  CE2       55.3180   47.7950   18.4260 C.ar  101  PHE101     -0.0003
     54  CZ        54.6150   47.5190   17.2760 C.ar  101  PHE101     -0.0000
     55  N         47.7980   51.5450   16.1170 N.3   109  GLU109     -0.1245
     56  CA        47.1800   50.9580   14.9110 C.3   109  GLU109      0.1567
     57  C         46.1100   51.8640   14.3020 C.2   109  GLU109      0.2260
     58  O         45.2510   52.4190   15.0110 O.2   109  GLU109     -0.2867
     59  CB        46.5500   49.5910   15.2160 C.3   109  GLU109      0.0388
     60  CG        47.4700   48.4390   15.5220 C.3   109  GLU109      0.1160
     61  CD        47.8440   48.2690   16.9960 C.2   109  GLU109      0.3649
     62  OE1       47.6230   49.1990   17.8010 O.co2 109  GLU109     -0.2457
     63  OE2       48.3930   47.2070   17.3170 O.co2 109  GLU109     -0.2457
     64  N         43.4920   51.2690   10.8190 N.3   111  ARG111     -0.1245
     65  CA        43.1150   50.3640    9.7430 C.3   111  ARG111      0.1563
     66  C         42.1980   51.0590    8.7710 C.2   111  ARG111      0.2260
     67  O         41.2000   51.7110    9.1610 O.2   111  ARG111     -0.2867
     68  CB        42.4210   49.1410   10.2980 C.3   111  ARG111      0.0307
     69  CG        43.2370   48.3480   11.2380 C.3   111  ARG111      0.0489
     70  CD        42.5400   47.1110   11.7590 C.3   111  ARG111      0.2205
     71  NE        43.5120   46.2810   12.4050 N.pl3 111  ARG111     -0.0865
     72  CZ        43.2390   45.1230   12.9870 C.cat 111  ARG111      0.5346
     73  NH1       41.9950   44.6720   13.0040 N.pl3 111  ARG111      0.1354
     74  NH2       44.2220   44.4130   13.5290 N.pl3 111  ARG111      0.1354
     75  N         51.9180   34.1340    7.8100 N.3   170  ASN170     -0.1225
     76  CA        50.6140   33.8600    8.3870 C.3   170  ASN170      0.1785
     77  C         50.4800   34.5090    9.7560 C.2   170  ASN170      0.2597
     78  O         51.3940   34.4580   10.5640 O.2   170  ASN170     -0.2718
     79  CB        50.4220   32.3550    8.6060 C.3   170  ASN170      0.1169
     80  CG        49.1650   32.0270    9.4070 C.2   170  ASN170      0.2627
     81  OD1       49.1920   31.9010   10.6290 O.2   170  ASN170     -0.2716
     82  ND2       48.0520   31.8830    8.7070 N.am  170  ASN170     -0.0877
     83  N         49.3110   35.0700   10.0070 N.am  171  ALA171     -0.1979
     84  CA        49.0110   35.6580   11.2850 C.3   171  ALA171      0.1597
     85  C         47.5530   35.4300   11.6120 C.2   171  ALA171      0.2287
     86  O         46.7580   36.3510   11.7410 O.2   171  ALA171     -0.2864
     87  CB        49.3200   37.1470   11.2840 C.3   171  ALA171      0.0319
     88  N         45.9540   34.4210   14.3240 N.3   173  ASP173     -0.1225
     89  CA        45.4420   34.8760   15.6060 C.3   173  ASP173      0.1805
     90  C         44.8800   36.3030   15.5650 C.2   173  ASP173      0.2597
     91  O         44.1980   36.7030   16.5020 O.2   173  ASP173     -0.2718
     92  CB        46.5250   34.7600   16.6920 C.3   173  ASP173      0.1424
     93  CG        47.8730   35.3250   16.2900 C.2   173  ASP173      0.3668
     94  OD1       48.4400   34.8720   15.2840 O.co2 173  ASP173     -0.2456
     95  OD2       48.3560   36.2320   17.0030 O.co2 173  ASP173     -0.2456
     96  N         45.1260   37.0900   14.4950 N.am  174  TRP174     -0.1976
     97  CA        44.5690   38.4470   14.5300 C.3   174  TRP174      0.1640
     98  C         44.2910   39.1000   13.1680 C.2   174  TRP174      0.2290
     99  O         43.6530   40.1610   13.1110 O.2   174  TRP174     -0.2864
    100  CB        45.5750   39.3570   15.2970 C.3   174  TRP174      0.0576
    101  CG        46.9290   39.5760   14.6620 C.ar  174  TRP174      0.0006
    102  CD1       48.0590   38.7780   14.8160 C.ar  174  TRP174      0.0946
    103  CD2       47.3580   40.6220   13.7700 C.ar  174  TRP174      0.0152
    104  NE1       49.1230   39.2830   14.1010 N.ar  174  TRP174     -0.2442
    105  CE2       48.7220   40.4130   13.4490 C.ar  174  TRP174      0.0810
    106  CE3       46.7120   41.7330   13.2250 C.ar  174  TRP174      0.0012
    107  CZ2       49.4300   41.2570   12.5970 C.ar  174  TRP174      0.0191
    108  CZ3       47.4290   42.5790   12.3970 C.ar  174  TRP174      0.0001
    109  CH2       48.7710   42.3410   12.0940 C.ar  174  TRP174      0.0015
    110  N         39.6400   40.0180   12.9860 N.3   178  GLY178     -0.1225
    111  CA        40.1960   40.0460   14.3270 C.3   178  GLY178      0.1811
    112  C         40.7710   38.7090   14.8330 C.2   178  GLY178      0.2280
    113  O         41.0730   38.5700   16.0200 O.2   178  GLY178     -0.2866
    114  N         40.5490   51.8650   24.7710 N.3   253  ARG253     -0.1245
    115  CA        41.9930   51.6240   24.9560 C.3   253  ARG253      0.1563
    116  C         42.6810   52.9040   25.4170 C.2   253  ARG253      0.2260
    117  O         43.6000   52.8800   26.2200 O.2   253  ARG253     -0.2867
    118  CB        42.6400   51.1200   23.6370 C.3   253  ARG253      0.0307
    119  CG        43.1830   49.6760   23.6900 C.3   253  ARG253      0.0489
    120  CD        44.5070   49.4180   22.9170 C.3   253  ARG253      0.2205
    121  NE        44.4460   49.8430   21.5210 N.pl3 253  ARG253     -0.0865
    122  CZ        45.3270   49.5100   20.5550 C.cat 253  ARG253      0.5346
    123  NH1       46.3880   48.7390   20.7840 N.pl3 253  ARG253      0.1354
    124  NH2       45.1290   49.9650   19.3310 N.pl3 253  ARG253      0.1354
@<TRIPOS>BOND
     1    20    21    2
     2    20    19    1
     3    18    19    1
     4    19    22    1
     5    27    28    1
     6    75    76    1
     7    30    29    2
     8    76    79    1
     9    76    77    1
    10    12    13    2
    11    12    11    1
    12    79    80    1
    13    82    80   am
    14    22    23    1
    15    66    67    2
    16    66    65    1
    17    28    29    1
    18    28    31    1
    19    23    24    1
    20    80    81    2
    21    11    10    1
    22    11    14    1
    23    65    68    1
    24    65    64    1
    25    77    83   am
    26    77    78    2
    27    31    32    1
    28    83    84    1
    29    68    69    1
    30    14    15    1
    31    24    26   ar
    32    24    25   ar
    33    16    15   ar
    34    69    70    1
    35    87    84    1
    36    84    85    1
    37    32    33    1
    38    15    17   ar
    39    85    86    2
    40    36    37    1
    41    70    71    1
    42   109   108   ar
    43   109   107   ar
    44    39    38    2
    45    33    35   am
    46    33    34    2
    47   108   106   ar
    48    71    72    2
    49   107   105   ar
    50     9     7   ar
    51     3     2    1
    52     3     4    2
    53   110   111    1
    54    72    73    1
    55    72    74    1
    56     6     7    1
    57     6     5    1
    58    37    38    1
    59    37    40    1
    60    99    98    2
    61    98    97    1
    62   106   103   ar
    63   105   103   ar
    64   105   104   ar
    65     2     5    1
    66     2     1    1
    67     7     8   ar
    68    40    41    1
    69   103   101   ar
    70   104   102   ar
    71    57    56    1
    72    57    58    2
    73    88    89    1
    74   111   112    1
    75    96    97    1
    76    96    90   am
    77    97   100    1
    78   101   102   ar
    79   101   100    1
    80   112   113    2
    81    56    59    1
    82    56    55    1
    83    41    43   am
    84    41    42    2
    85    59    60    1
    86    94    93   ar
    87    60    61    1
    88    90    89    1
    89    90    91    2
    90    89    92    1
    91    44    45    1
    92    52    50   ar
    93    52    54   ar
    94    50    49   ar
    95    93    92    1
    96    93    95   ar
    97    47    46    2
    98    61    63   ar
    99    61    62   ar
   100    54    53   ar
   101    49    48    1
   102    49    51   ar
   103    45    48    1
   104    45    46    1
   105    53    51   ar
   106   124   122    1
   107   122   123    1
   108   122   121    2
   109   121   120    1
   110   120   119    1
   111   118   119    1
   112   118   115    1
   113   114   115    1
   114   115   116    1
   115   116   117    2
