@<TRIPOS>MOLECULE
tmp/1un1A00.pdb
 87 83 0 0 0
SMALL
GASTEIGER

@<TRIPOS>ATOM
      1  N         34.0700  144.6180   -0.5980 N.3    86  LEU86      -0.1231
      2  CA        35.4120  144.5820   -1.1330 C.3    86  LEU86       0.1693
      3  C         36.3540  145.2480   -0.1180 C.2    86  LEU86       0.2593
      4  O         36.1830  146.4330    0.2230 O.2    86  LEU86      -0.2718
      5  CB        35.4790  145.3300   -2.4730 C.3    86  LEU86       0.0284
      6  CG        34.2920  145.1760   -3.4380 C.3    86  LEU86       0.0019
      7  CD1       34.5010  146.0450   -4.6760 C.3    86  LEU86       0.0001
      8  CD2       34.0800  143.7450   -3.8350 C.3    86  LEU86       0.0001
      9  N         37.3110  144.4600    0.3740 N.am   87  GLY87      -0.1942
     10  CA        38.1840  144.8320    1.4590 C.3    87  GLY87       0.2014
     11  C         39.3060  145.7600    1.0030 C.2    87  GLY87       0.2638
     12  O         39.3980  146.1460   -0.1720 O.2    87  GLY87      -0.2714
     13  N         40.1680  146.1010    1.9460 N.am   88  ASN88      -0.1972
     14  CA        41.2150  147.0920    1.7030 C.3    88  ASN88       0.1688
     15  C         42.4150  146.9180    2.6360 C.2    88  ASN88       0.2292
     16  O         42.3360  146.2450    3.6580 O.2    88  ASN88      -0.2864
     17  CB        40.6320  148.5110    1.8870 C.3    88  ASN88       0.1181
     18  CG        41.1010  149.4920    0.8240 C.2    88  ASN88       0.2629
     19  OD1       42.1820  149.3510    0.2770 O.2    88  ASN88      -0.2716
     20  ND2       40.2730  150.4980    0.5400 N.am   88  ASN88      -0.0877
     21  N         42.0860  151.6620    5.4380 N.3    92  GLN92      -0.1231
     22  CA        41.4680  152.1700    4.2200 C.3    92  GLN92       0.1683
     23  C         40.0600  151.5740    4.0920 C.2    92  GLN92       0.2434
     24  O         39.7940  150.5190    4.6480 O.2    92  GLN92      -0.2733
     25  CB        42.3480  151.8620    3.0150 C.3    92  GLN92       0.0380
     26  CG        43.7270  152.5250    3.0700 C.3    92  GLN92       0.0905
     27  CD        43.6340  154.0480    3.0210 C.2    92  GLN92       0.2608
     28  OE1       44.0300  154.7350    3.9740 O.2    92  GLN92      -0.2717
     29  NE2       43.1470  154.5750    1.9070 N.am   92  GLN92      -0.0878
     30  N         39.1370  152.2720    3.4280 N.am   93  PRO93      -0.2729
     31  CA        37.7160  151.9410    3.5510 C.3    93  PRO93       0.1401
     32  C         37.2620  150.7690    2.6650 C.2    93  PRO93       0.2269
     33  O         37.7000  150.6220    1.5280 O.2    93  PRO93      -0.2865
     34  CB        37.0290  153.2490    3.1080 C.3    93  PRO93       0.0296
     35  CG        37.9400  153.8380    2.1210 C.3    93  PRO93       0.0237
     36  CD        39.3380  153.4390    2.5450 C.3    93  PRO93       0.0939
     37  N         34.4890  148.9570    0.2710 N.3    95  ILE95      -0.1245
     38  CA        33.3880  149.2930   -0.6190 C.3    95  ILE95       0.1561
     39  C         32.2870  148.2610   -0.5030 C.2    95  ILE95       0.2260
     40  O         32.5610  147.0470   -0.4470 O.2    95  ILE95      -0.2867
     41  CB        33.8780  149.3630   -2.0870 C.3    95  ILE95       0.0252
     42  CG1       34.6970  150.6380   -2.2800 C.3    95  ILE95       0.0019
     43  CG2       32.7170  149.3550   -3.0600 C.3    95  ILE95       0.0019
     44  CD1       35.4760  150.6910   -3.5650 C.3    95  ILE95       0.0001
     45  N         30.6860  153.7840   -0.0840 N.3   113  TYR113     -0.1241
     46  CA        31.3460  153.7170    1.2030 C.3   113  TYR113      0.1605
     47  C         30.2710  153.7060    2.2660 C.2   113  TYR113      0.2264
     48  O         29.1480  154.1590    2.0460 O.2   113  TYR113     -0.2867
     49  CB        32.2730  154.9420    1.4340 C.3   113  TYR113      0.0534
     50  CG        33.5580  154.9890    0.6370 C.ar  113  TYR113     -0.0201
     51  CD1       34.1500  153.8350    0.1380 C.ar  113  TYR113     -0.0009
     52  CD2       34.2080  156.2060    0.4030 C.ar  113  TYR113     -0.0009
     53  CE1       35.3290  153.8760   -0.5800 C.ar  113  TYR113      0.0417
     54  CE2       35.4180  156.2590   -0.3140 C.ar  113  TYR113      0.0417
     55  CZ        35.9760  155.0910   -0.7880 C.ar  113  TYR113      0.1957
     56  OH        37.1450  155.0990   -1.5220 O.3   113  TYR113     -0.2866
     57  N         39.1440  143.3040   -6.7670 N.3   175  ALA175     -0.1231
     58  CA        38.4620  143.8000   -5.5510 C.3   175  ALA175      0.1694
     59  C         38.9930  145.1250   -5.0110 C.2   175  ALA175      0.2593
     60  O         38.2160  146.0330   -4.7080 O.2   175  ALA175     -0.2718
     61  CB        38.5030  142.7470   -4.4300 C.3   175  ALA175      0.0304
     62  N         40.3060  145.2340   -4.8630 N.am  176  THR176     -0.1939
     63  CA        40.8720  146.3820   -4.1910 C.3   176  THR176      0.2028
     64  C         41.6570  147.2540   -5.1700 C.2   176  THR176      0.2642
     65  O         42.6110  146.7890   -5.8040 O.2   176  THR176     -0.2714
     66  CB        41.7350  145.9490   -2.9980 C.3   176  THR176      0.1808
     67  OG1       40.9820  145.0760   -2.1410 O.3   176  THR176     -0.2208
     68  CG2       42.0930  147.1570   -2.0990 C.3   176  THR176      0.0379
     69  N         41.2160  148.5130   -5.2640 N.am  177  ARG177     -0.1977
     70  CA        41.7480  149.5330   -6.1650 C.3   177  ARG177      0.1597
     71  C         41.8330  149.0190   -7.5810 C.2   177  ARG177      0.2287
     72  O         42.8450  149.1920   -8.2360 O.2   177  ARG177     -0.2864
     73  CB        43.1090  150.0550   -5.6800 C.3   177  ARG177      0.0334
     74  CG        43.0400  150.8260   -4.3670 C.3   177  ARG177      0.0492
     75  CD        44.3770  151.4300   -3.9100 C.3   177  ARG177      0.2205
     76  NE        44.9230  152.3220   -4.9340 N.pl3 177  ARG177     -0.0865
     77  CZ        46.1040  152.1770   -5.5360 C.cat 177  ARG177      0.5346
     78  NH1       46.9290  151.1790   -5.2390 N.pl3 177  ARG177      0.1354
     79  NH2       46.4660  153.0490   -6.4590 N.pl3 177  ARG177      0.1354
     80  N         30.3610  156.1170   -4.8500 N.3   244  ILE244     -0.1245
     81  CA        31.5400  156.3520   -5.6670 C.3   244  ILE244      0.1561
     82  C         31.4170  155.8190   -7.0850 C.2   244  ILE244      0.2260
     83  O         32.2110  156.1720   -7.9340 O.2   244  ILE244     -0.2867
     84  CB        32.8220  155.8210   -4.9810 C.3   244  ILE244      0.0252
     85  CG1       32.8210  154.3000   -4.8700 C.3   244  ILE244      0.0019
     86  CG2       32.9750  156.4640   -3.6010 C.3   244  ILE244      0.0019
     87  CD1       34.1210  153.7510   -4.3270 C.3   244  ILE244      0.0001
@<TRIPOS>BOND
     1    72    71    2
     2    83    82    2
     3    71    70    1
     4    82    81    1
     5    57    58    1
     6    79    77    1
     7    70    73    1
     8    70    69    1
     9    65    64    2
    10    73    74    1
    11    81    84    1
    12    81    80    1
    13    58    59    1
    14    58    61    1
    15    77    78    1
    16    77    76    2
    17    69    64   am
    18    64    63    1
    19    59    62   am
    20    59    60    2
    21    84    85    1
    22    84    86    1
    23    76    75    1
    24    85    87    1
    25    62    63    1
    26     7     6    1
    27    74    75    1
    28    63    66    1
    29     8     6    1
    30    44    42    1
    31     6     5    1
    32    43    41    1
    33    66    67    1
    34    66    68    1
    35     5     2    1
    36    42    41    1
    37    41    38    1
    38    56    55    1
    39     2     1    1
    40     2     3    1
    41    55    53   ar
    42    55    54   ar
    43    38    39    1
    44    38    37    1
    45    53    51   ar
    46    39    40    2
    47    54    52   ar
    48    12    11    2
    49     3     4    2
    50     3     9   am
    51    45    46    1
    52    51    50   ar
    53    19    18    2
    54     9    10    1
    55    52    50   ar
    56    20    18   am
    57    50    49    1
    58    18    17    1
    59    11    10    1
    60    11    13   am
    61    46    49    1
    62    46    47    1
    63    33    32    2
    64    14    17    1
    65    14    13    1
    66    14    15    1
    67    29    27   am
    68    48    47    2
    69    35    36    1
    70    35    34    1
    71    36    30    1
    72    15    16    2
    73    32    31    1
    74    25    26    1
    75    25    22    1
    76    27    26    1
    77    27    28    2
    78    34    31    1
    79    30    31    1
    80    30    23   am
    81    23    22    1
    82    23    24    2
    83    22    21    1
