@<TRIPOS>MOLECULE
tmp/1un9B00.pdb
 154 145 0 0 0
SMALL
GASTEIGER

@<TRIPOS>ATOM
      1  N          5.8220   70.2710  108.4560 N.3   380  ASP380     -0.1239
      2  CA         6.2300   70.8590  109.7200 C.3   380  ASP380      0.1674
      3  C          5.4720   70.2380  110.8810 C.2   380  ASP380      0.2266
      4  O          5.8870   70.3460  112.0290 O.2   380  ASP380     -0.2867
      5  CB         6.0100   72.3760  109.6700 C.3   380  ASP380      0.1410
      6  CG         6.7100   73.1110  110.7990 C.2   380  ASP380      0.3668
      7  OD1        7.7430   72.6050  111.2950 O.co2 380  ASP380     -0.2456
      8  OD2        6.2330   74.2050  111.1750 O.co2 380  ASP380     -0.2456
      9  N          7.2420   67.1060  111.9930 N.3   383  VAL383     -0.1231
     10  CA         8.5450   67.5210  112.5000 C.3   383  VAL383      0.1692
     11  C          8.4790   68.4970  113.6760 C.2   383  VAL383      0.2593
     12  O          9.0820   68.2400  114.7110 O.2   383  VAL383     -0.2718
     13  CB         9.3940   68.1600  111.3690 C.3   383  VAL383      0.0266
     14  CG1       10.4860   69.0810  111.9620 C.3   383  VAL383      0.0020
     15  CG2       10.0190   67.0490  110.5160 C.3   383  VAL383      0.0020
     16  N          7.7560   69.6060  113.5080 N.am  384  GLY384     -0.1942
     17  CA         7.6430   70.6060  114.5600 C.3   384  GLY384      0.2014
     18  C          6.2290   71.0840  114.8550 C.2   384  GLY384      0.2638
     19  O          5.3270   70.2600  114.9650 O.2   384  GLY384     -0.2714
     20  N          6.0320   72.4040  114.9660 N.am  385  ASP385     -0.1971
     21  CA         4.7200   72.9790  115.2770 C.3   385  ASP385      0.1709
     22  C          3.7810   73.2510  114.0930 C.2   385  ASP385      0.2293
     23  O          2.9370   74.1430  114.1570 O.2   385  ASP385     -0.2864
     24  CB         4.8870   74.2630  116.1250 C.3   385  ASP385      0.1436
     25  CG         5.7940   75.3070  115.4690 C.2   385  ASP385      0.3671
     26  OD1        6.0260   76.3950  116.0610 O.co2 385  ASP385     -0.2456
     27  OD2        6.2750   75.0360  114.3570 O.co2 385  ASP385     -0.2456
     28  N          3.6730   74.9500  111.5260 N.3   387  ASP387     -0.1225
     29  CA         3.4550   76.3490  111.1590 C.3   387  ASP387      0.1805
     30  C          4.2910   76.8520  109.9790 C.2   387  ASP387      0.2598
     31  O          4.1070   77.9860  109.5520 O.2   387  ASP387     -0.2718
     32  CB         3.6970   77.2640  112.3810 C.3   387  ASP387      0.1424
     33  CG         5.1310   77.1790  112.9260 C.2   387  ASP387      0.3668
     34  OD1        5.9400   76.4110  112.3690 O.co2 387  ASP387     -0.2456
     35  OD2        5.4550   77.8800  113.9160 O.co2 387  ASP387     -0.2456
     36  N          5.1910   76.0300  109.4390 N.am  388  THR388     -0.1953
     37  CA         6.0460   76.4760  108.3270 C.3   388  THR388      0.1897
     38  C          5.3110   77.0920  107.1350 C.2   388  THR388      0.2313
     39  O          5.4640   78.2900  106.8520 O.2   388  THR388     -0.2863
     40  CB         6.9600   75.3320  107.7830 C.3   388  THR388      0.1794
     41  OG1        8.0320   75.0820  108.6980 O.3   388  THR388     -0.2208
     42  CG2        7.5680   75.7320  106.4450 C.3   388  THR388      0.0378
     43  N          3.7710   80.2980  107.9690 N.3   391  THR391     -0.1203
     44  CA         4.7860   81.2960  108.2640 C.3   391  THR391      0.1994
     45  C          5.4330   81.7890  106.9760 C.2   391  THR391      0.2617
     46  O          5.5280   82.9940  106.7310 O.2   391  THR391     -0.2717
     47  CB         5.9110   80.7300  109.1550 C.3   391  THR391      0.1784
     48  OG1        5.3440   80.0510  110.2760 O.3   391  THR391     -0.2211
     49  CG2        6.8040   81.8660  109.6710 C.3   391  THR391      0.0376
     50  N          5.8900   80.8550  106.1530 N.am  392  PHE392     -0.1975
     51  CA         6.5470   81.2240  104.9150 C.3   392  PHE392      0.1639
     52  C          5.6430   81.9760  103.9460 C.2   392  PHE392      0.2290
     53  O          6.1140   82.8370  103.2030 O.2   392  PHE392     -0.2864
     54  CB         7.1530   79.9720  104.2610 C.3   392  PHE392      0.0560
     55  CG         8.5350   79.6380  104.7660 C.ar  392  PHE392     -0.0200
     56  CD1        8.7870   79.5400  106.1290 C.ar  392  PHE392     -0.0042
     57  CD2        9.5950   79.4690  103.8800 C.ar  392  PHE392     -0.0042
     58  CE1       10.0790   79.2840  106.6050 C.ar  392  PHE392     -0.0003
     59  CE2       10.8900   79.2130  104.3450 C.ar  392  PHE392     -0.0003
     60  CZ        11.1310   79.1220  105.7090 C.ar  392  PHE392     -0.0000
     61  N          8.6810   84.2080  114.8030 N.3   430  GLY430     -0.1210
     62  CA         9.5220   83.0230  114.8630 C.3   430  GLY430      0.1956
     63  C         10.8940   83.1450  114.2260 C.2   430  GLY430      0.2613
     64  O         11.1310   84.0170  113.3850 O.2   430  GLY430     -0.2717
     65  N         11.7940   82.2500  114.6270 N.am  431  SER431     -0.1938
     66  CA        13.1680   82.2420  114.1350 C.3   431  SER431      0.2055
     67  C         13.2860   82.3580  112.6170 C.2   431  SER431      0.2643
     68  O         14.1290   83.0980  112.1150 O.2   431  SER431     -0.2714
     69  CB        13.8960   80.9840  114.6410 C.3   431  SER431      0.2130
     70  OG        13.1250   79.8040  114.4520 O.3   431  SER431     -0.2179
     71  N         12.4410   81.6340  111.8910 N.am  432  SER432     -0.1949
     72  CA        12.4660   81.6760  110.4360 C.3   432  SER432      0.1924
     73  C         12.5160   83.1220  109.9900 C.2   432  SER432      0.2314
     74  O         13.4610   83.5300  109.3140 O.2   432  SER432     -0.2863
     75  CB        11.2170   81.0180  109.8650 C.3   432  SER432      0.2116
     76  OG        11.4640   79.6470  109.6220 O.3   432  SER432     -0.2180
     77  N         15.7010   84.6610  110.5960 N.3   435  LEU435     -0.1245
     78  CA        16.7330   84.0500  109.7600 C.3   435  LEU435      0.1561
     79  C         16.6010   84.5780  108.3420 C.2   435  LEU435      0.2260
     80  O         17.5880   85.0000  107.7230 O.2   435  LEU435     -0.2867
     81  CB        16.5960   82.5190  109.7620 C.3   435  LEU435      0.0270
     82  CG        16.9000   81.7970  111.0830 C.3   435  LEU435      0.0019
     83  CD1       16.2810   80.4130  111.0630 C.3   435  LEU435      0.0001
     84  CD2       18.4070   81.7340  111.3120 C.3   435  LEU435      0.0001
     85  N         23.5080   83.7080  107.8470 N.3   464  MET464     -0.1245
     86  CA        22.4180   82.9270  108.3830 C.3   464  MET464      0.1570
     87  C         22.9680   81.7550  109.1580 C.2   464  MET464      0.2261
     88  O         22.3640   81.2920  110.1160 O.2   464  MET464     -0.2867
     89  CB        21.5410   82.4270  107.2530 C.3   464  MET464      0.0387
     90  CG        20.2540   81.8730  107.7250 C.3   464  MET464      0.0595
     91  SD        19.2290   81.6520  106.3150 S.3   464  MET464     -0.1393
     92  CE        18.7670   79.9480  106.5060 C.3   464  MET464      0.0692
     93  N         22.4560   81.6900  113.0130 N.3   468  GLY468     -0.1225
     94  CA        21.5370   80.5760  113.1630 C.3   468  GLY468      0.1811
     95  C         22.1730   79.3160  113.7100 C.2   468  GLY468      0.2280
     96  O         21.4580   78.4290  114.1580 O.2   468  GLY468     -0.2866
     97  N         23.4020   76.7780  112.2720 N.3   470  ALA470     -0.1245
     98  CA        23.2130   75.5600  111.4840 C.3   470  ALA470      0.1562
     99  C         24.2050   75.3470  110.3500 C.2   470  ALA470      0.2260
    100  O         24.5460   76.2770  109.6190 O.2   470  ALA470     -0.2867
    101  CB        21.8000   75.5240  110.9250 C.3   470  ALA470      0.0290
    102  N         19.7450   68.8620  108.8830 N.3   475  ARG475     -0.1231
    103  CA        18.3360   68.7420  108.4790 C.3   475  ARG475      0.1694
    104  C         17.6980   70.1110  108.4910 C.2   475  ARG475      0.2593
    105  O         16.7040   70.3340  109.1850 O.2   475  ARG475     -0.2718
    106  CB        17.5410   67.8640  109.4450 C.3   475  ARG475      0.0321
    107  CG        17.9640   66.4340  109.5180 C.3   475  ARG475      0.0489
    108  CD        17.0620   65.6730  110.4620 C.3   475  ARG475      0.2205
    109  NE        15.9320   65.0480  109.7810 N.pl3 475  ARG475     -0.0865
    110  CZ        14.8860   65.6950  109.2890 C.cat 475  ARG475      0.5346
    111  NH1       14.8010   67.0150  109.3910 N.pl3 475  ARG475      0.1354
    112  NH2       13.9110   65.0060  108.7100 N.pl3 475  ARG475      0.1354
    113  N         18.2470   71.0310  107.7170 N.am  476  THR476     -0.1939
    114  CA        17.7240   72.3800  107.7120 C.3   476  THR476      0.2028
    115  C         17.6410   72.9000  106.2870 C.2   476  THR476      0.2642
    116  O         18.0750   72.2280  105.3600 O.2   476  THR476     -0.2714
    117  CB        18.6430   73.2600  108.5550 C.3   476  THR476      0.1808
    118  OG1       18.1510   74.5920  108.5760 O.3   476  THR476     -0.2208
    119  CG2       20.0540   73.2450  107.9860 C.3   476  THR476      0.0379
    120  N         17.0760   74.0840  106.0910 N.am  477  MET477     -0.1962
    121  CA        16.9820   74.6220  104.7400 C.3   477  MET477      0.1736
    122  C         18.3800   74.9300  104.2440 C.2   477  MET477      0.2616
    123  O         18.5950   75.0990  103.0480 O.2   477  MET477     -0.2715
    124  CB        16.1280   75.8830  104.7060 C.3   477  MET477      0.0427
    125  CG        16.7550   77.0830  105.3940 C.3   477  MET477      0.0599
    126  SD        15.5170   78.3460  105.6350 S.3   477  MET477     -0.1393
    127  CE        15.1000   78.6550  103.9040 C.3   477  MET477      0.0692
    128  N         19.3330   75.0060  105.1640 N.am  478  ILE478     -0.1977
    129  CA        20.7120   75.2500  104.7700 C.3   478  ILE478      0.1596
    130  C         21.1800   74.0740  103.8870 C.2   478  ILE478      0.2287
    131  O         22.0330   74.2460  103.0110 O.2   478  ILE478     -0.2864
    132  CB        21.6370   75.3350  105.9950 C.3   478  ILE478      0.0276
    133  CG1       21.2100   76.4920  106.8980 C.3   478  ILE478      0.0022
    134  CG2       23.0860   75.4990  105.5440 C.3   478  ILE478      0.0022
    135  CD1       21.4990   77.8550  106.3330 C.3   478  ILE478      0.0001
    136  N         12.2630   67.9810  105.7960 N.3   520  ASP520     -0.1225
    137  CA        12.3390   69.2440  106.5070 C.3   520  ASP520      0.1790
    138  C         11.6710   70.3030  105.6480 C.2   520  ASP520      0.2440
    139  O         12.0950   70.5390  104.5270 O.2   520  ASP520     -0.2733
    140  CB        13.7930   69.6180  106.7380 C.3   520  ASP520      0.1423
    141  CG        13.9360   70.9240  107.4650 C.2   520  ASP520      0.3668
    142  OD1       13.4130   71.0300  108.5950 O.co2 520  ASP520     -0.2456
    143  OD2       14.5690   71.8430  106.9090 O.co2 520  ASP520     -0.2456
    144  N         10.6280   70.9690  106.1710 N.am  521  PRO521     -0.2718
    145  CA         9.8840   72.0080  105.4520 C.3   521  PRO521      0.1535
    146  C         10.7840   73.0370  104.7940 C.2   521  PRO521      0.2599
    147  O         10.5840   73.3900  103.6330 O.2   521  PRO521     -0.2715
    148  CB         9.0160   72.6290  106.5400 C.3   521  PRO521      0.0310
    149  CG         8.8340   71.5200  107.5060 C.3   521  PRO521      0.0237
    150  CD        10.2140   70.9310  107.5810 C.3   521  PRO521      0.0939
    151  N         11.7680   73.5230  105.5470 N.am  522  GLY522     -0.1955
    152  CA        12.6890   74.5080  105.0100 C.3   522  GLY522      0.1869
    153  C         13.2780   74.0520  103.6870 C.2   522  GLY522      0.2309
    154  O         13.1060   74.7050  102.6600 O.2   522  GLY522     -0.2863
@<TRIPOS>BOND
     1   154   153    2
     2   131   130    2
     3   123   122    2
     4    53    52    2
     5   147   146    2
     6   153   152    1
     7    57    59   ar
     8    57    55   ar
     9   130   129    1
    10   127   126    1
    11    52    51    1
    12   122   121    1
    13   122   128   am
    14    54    55    1
    15    54    51    1
    16    59    60   ar
    17   139   138    2
    18   124   121    1
    19   124   125    1
    20   121   120    1
    21    55    56   ar
    22   129   128    1
    23   129   132    1
    24   146   145    1
    25   146   151   am
    26    51    50    1
    27   152   151    1
    28   116   115    2
    29   125   126    1
    30   145   144    1
    31   145   148    1
    32   134   132    1
    33   138   144   am
    34   138   137    1
    35    60    58   ar
    36   136   137    1
    37   132   133    1
    38   120   115   am
    39    56    58   ar
    40    50    45   am
    41   144   150    1
    42   115   114    1
    43    91    92    1
    44    91    90    1
    45   135   133    1
    46    42    40    1
    47   137   140    1
    48   148   149    1
    49    46    45    2
    50   140   141    1
    51    39    38    2
    52   143   141   ar
    53    45    44    1
    54    38    37    1
    55    89    90    1
    56    89    86    1
    57   141   142   ar
    58   149   150    1
    59   114   113    1
    60   114   117    1
    61   113   104   am
    62    80    79    2
    63    40    37    1
    64    40    41    1
    65    85    86    1
    66    43    44    1
    67   119   117    1
    68    44    47    1
    69    37    36    1
    70    79    78    1
    71    86    87    1
    72     1     2    1
    73   103   104    1
    74   103   102    1
    75   103   106    1
    76   104   105    2
    77   117   118    1
    78   112   110    1
    79    47    49    1
    80    47    48    1
    81    87    88    2
    82   110   111    1
    83   110   109    2
    84    74    73    2
    85    36    30   am
    86   106   107    1
    87   107   108    1
    88    31    30    2
    89   100    99    2
    90    76    75    1
    91     5     2    1
    92     5     6    1
    93     2     3    1
    94    78    81    1
    95    78    77    1
    96    81    82    1
    97   109   108    1
    98    75    72    1
    99    30    29    1
   100    73    72    1
   101    99    98    1
   102    72    71    1
   103    15    13    1
   104     6     8   ar
   105     6     7   ar
   106     3     4    2
   107   101    98    1
   108    83    82    1
   109    82    84    1
   110    29    28    1
   111    29    32    1
   112    13    14    1
   113    13    10    1
   114    98    97    1
   115    71    67   am
   116     9    10    1
   117    68    67    2
   118    34    33   ar
   119    32    33    1
   120    10    11    1
   121    67    66    1
   122    33    35   ar
   123    93    94    1
   124    94    95    1
   125    64    63    2
   126    16    11   am
   127    16    17    1
   128    11    12    2
   129    95    96    2
   130    22    23    2
   131    22    21    1
   132    66    65    1
   133    66    69    1
   134    63    65   am
   135    63    62    1
   136    27    25   ar
   137    70    69    1
   138    17    18    1
   139    61    62    1
   140    18    19    2
   141    18    20   am
   142    20    21    1
   143    21    24    1
   144    25    26   ar
   145    25    24    1
