@<TRIPOS>MOLECULE
tmp/1unbA01.pdb
 195 181 0 0 0
SMALL
GASTEIGER

@<TRIPOS>ATOM
      1  N         -8.8990   13.1210   50.0250 N.3    72  THR72      -0.1203
      2  CA        -7.5530   12.7880   49.5780 C.3    72  THR72       0.1994
      3  C         -6.4400   13.7230   50.0790 C.2    72  THR72       0.2618
      4  O         -5.2340   13.4130   49.8720 O.2    72  THR72      -0.2717
      5  CB        -7.5070   12.8150   48.1020 C.3    72  THR72       0.1784
      6  OG1       -7.9390   14.0890   47.6860 O.3    72  THR72      -0.2211
      7  CG2       -8.5020   11.7830   47.4790 C.3    72  THR72       0.0376
      8  N         -6.8080   14.8360   50.6890 N.am   73  MET73      -0.1965
      9  CA        -5.8320   15.8650   51.1010 C.3    73  MET73       0.1736
     10  C         -5.0750   16.4310   49.8920 C.2    73  MET73       0.2616
     11  O         -3.9020   16.8590   49.9790 O.2    73  MET73      -0.2715
     12  CB        -4.8410   15.3060   52.1260 C.3    73  MET73       0.0427
     13  CG        -5.4380   14.7290   53.2700 C.3    73  MET73       0.0599
     14  SD        -4.2030   14.5980   54.6460 S.3    73  MET73      -0.1393
     15  CE        -3.3870   15.9040   54.5810 C.3    73  MET73       0.0692
     16  N         -5.7080   16.4580   48.7490 N.am   74  ARG74      -0.1977
     17  CA        -5.1020   17.0750   47.5740 C.3    74  ARG74       0.1597
     18  C         -5.3350   18.5470   47.4610 C.2    74  ARG74       0.2287
     19  O         -4.4360   19.2790   47.0490 O.2    74  ARG74      -0.2864
     20  CB        -5.6140   16.4570   46.2560 C.3    74  ARG74       0.0334
     21  CG        -4.8050   16.7590   44.9580 C.3    74  ARG74       0.0492
     22  CD        -5.5710   16.4050   43.6530 C.3    74  ARG74       0.2205
     23  NE        -4.7690   16.6260   42.4750 N.pl3  74  ARG74      -0.0865
     24  CZ        -4.9340   17.5960   41.6290 C.cat  74  ARG74       0.5346
     25  NH1       -5.9070   18.5140   41.7980 N.pl3  74  ARG74       0.1354
     26  NH2       -4.1220   17.6800   40.5800 N.pl3  74  ARG74       0.1354
     27  N          2.6110   19.8040   45.0520 N.3   148  LEU148     -0.1245
     28  CA         1.5540   19.7670   46.0280 C.3   148  LEU148      0.1561
     29  C          2.1060   20.4560   47.2880 C.2   148  LEU148      0.2260
     30  O          3.1590   20.0740   47.7700 O.2   148  LEU148     -0.2867
     31  CB         1.2220   18.3790   46.3650 C.3   148  LEU148      0.0270
     32  CG         0.2460   18.1650   47.5450 C.3   148  LEU148      0.0019
     33  CD1       -1.1780   18.6440   47.1240 C.3   148  LEU148      0.0001
     34  CD2        0.1700   16.6210   47.7930 C.3   148  LEU148      0.0001
     35  N          1.1190   21.1620   51.3070 N.3   150  ARG150     -0.1245
     36  CA         0.2420   20.8510   52.4270 C.3   150  ARG150      0.1563
     37  C          0.7430   21.5620   53.7090 C.2   150  ARG150      0.2260
     38  O          1.8850   21.4220   54.1290 O.2   150  ARG150     -0.2867
     39  CB         0.2070   19.3680   52.6930 C.3   150  ARG150      0.0307
     40  CG        -0.4560   18.5190   51.6790 C.3   150  ARG150      0.0489
     41  CD        -0.7070   17.1100   52.1900 C.3   150  ARG150      0.2205
     42  NE        -1.2770   16.2080   51.2120 N.pl3 150  ARG150     -0.0865
     43  CZ        -0.9610   14.9280   51.0940 C.cat 150  ARG150      0.5346
     44  NH1       -0.0290   14.3450   51.8860 N.pl3 150  ARG150      0.1354
     45  NH2       -1.5850   14.2000   50.1390 N.pl3 150  ARG150      0.1354
     46  N         -0.1220   21.8030   57.7010 N.3   152  ARG152     -0.1245
     47  CA        -0.7180   20.8940   58.6700 C.3   152  ARG152      0.1563
     48  C         -0.5230   21.4010   60.0930 C.2   152  ARG152      0.2260
     49  O          0.6500   21.5630   60.5180 O.2   152  ARG152     -0.2867
     50  CB        -0.0820   19.5250   58.5360 C.3   152  ARG152      0.0307
     51  CG        -0.5210   18.7810   57.3260 C.3   152  ARG152      0.0489
     52  CD        -0.6090   17.2500   57.4490 C.3   152  ARG152      0.2205
     53  NE         0.4080   16.5440   56.6530 N.pl3 152  ARG152     -0.0865
     54  CZ         0.6390   15.2330   56.7380 C.cat 152  ARG152      0.5346
     55  NH1       -0.0760   14.4830   57.5710 N.pl3 152  ARG152      0.1354
     56  NH2        1.5760   14.6660   55.9950 N.pl3 152  ARG152      0.1354
     57  N         -0.8940   20.6340   64.0740 N.3   154  PHE154     -0.1241
     58  CA        -0.8600   19.4760   64.9680 C.3   154  PHE154      0.1605
     59  C         -1.2050   20.0940   66.3490 C.2   154  PHE154      0.2264
     60  O         -0.4940   20.9690   66.8120 O.2   154  PHE154     -0.2867
     61  CB         0.5480   18.8780   64.9880 C.3   154  PHE154      0.0534
     62  CG         1.0990   18.4350   63.6210 C.ar  154  PHE154     -0.0203
     63  CD1        1.5230   19.3660   62.6900 C.ar  154  PHE154     -0.0042
     64  CD2        1.2220   17.0930   63.3000 C.ar  154  PHE154     -0.0042
     65  CE1        2.0330   18.9730   61.4830 C.ar  154  PHE154     -0.0003
     66  CE2        1.7330   16.6810   62.0640 C.ar  154  PHE154     -0.0003
     67  CZ         2.1370   17.6260   61.1590 C.ar  154  PHE154     -0.0000
     68  N          4.5690   11.0030   62.9030 N.3   159  MET159     -0.1245
     69  CA         4.7780   10.5560   61.5300 C.3   159  MET159      0.1570
     70  C          5.8360    9.4720   61.4950 C.2   159  MET159      0.2261
     71  O          6.9490    9.6960   61.9320 O.2   159  MET159     -0.2867
     72  CB         5.2360   11.7240   60.6940 C.3   159  MET159      0.0387
     73  CG         5.4740   11.4110   59.2680 C.3   159  MET159      0.0595
     74  SD         5.1370   12.7630   58.1720 S.3   159  MET159     -0.1393
     75  CE         4.1480   11.7330   56.9610 C.3   159  MET159      0.0692
     76  N         10.0530    7.4740   56.9640 N.3   162  HIS162     -0.1241
     77  CA         9.7920    7.3590   55.5450 C.3   162  HIS162      0.1621
     78  C         10.7890    8.1630   54.8280 C.2   162  HIS162      0.2264
     79  O         11.4520    9.0160   55.3920 O.2   162  HIS162     -0.2867
     80  CB         8.4110    7.7780   55.2190 C.3   162  HIS162      0.0745
     81  CG         8.1530    9.2220   55.3300 C.ar  162  HIS162      0.0817
     82  ND1        7.6130    9.7630   56.4560 N.ar  162  HIS162     -0.2268
     83  CD2        8.3410   10.2480   54.4630 C.ar  162  HIS162      0.1154
     84  CE1        7.4390   11.0590   56.2690 C.ar  162  HIS162      0.1986
     85  NE2        7.9280   11.3890   55.0850 N.ar  162  HIS162     -0.2212
     86  N         10.8180   10.5660   51.0520 N.3   164  ASP164     -0.1239
     87  CA         9.7930   11.2080   50.1690 C.3   164  ASP164      0.1674
     88  C         10.0810   10.7130   48.7780 C.2   164  ASP164      0.2266
     89  O         11.1940   10.3820   48.3990 O.2   164  ASP164     -0.2867
     90  CB         9.9150   12.7210   50.1900 C.3   164  ASP164      0.1410
     91  CG         9.5180   13.3370   51.4810 C.2   164  ASP164      0.3668
     92  OD1        9.0900   12.6410   52.4600 O.co2 164  ASP164     -0.2456
     93  OD2        9.6260   14.6430   51.5990 O.co2 164  ASP164     -0.2456
     94  N         11.6570   18.2510   48.5160 N.3   169  THR169     -0.1218
     95  CA        10.5810   18.6840   49.4080 C.3   169  THR169      0.1862
     96  C         11.0840   19.8560   50.2500 C.2   169  THR169      0.2287
     97  O         12.2040   19.7400   50.7960 O.2   169  THR169     -0.2866
     98  CB        10.1560   17.5510   50.3920 C.3   169  THR169      0.1770
     99  OG1        9.7630   16.3810   49.6280 O.3   169  THR169     -0.2211
    100  CG2        8.9040   17.9870   51.2250 C.3   169  THR169      0.0375
    101  N         10.3790   22.3730   53.4870 N.3   171  ILE171     -0.1245
    102  CA         9.6320   22.3430   54.7100 C.3   171  ILE171      0.1561
    103  C          9.8640   23.6270   55.4920 C.2   171  ILE171      0.2260
    104  O         11.0330   23.9580   55.8830 O.2   171  ILE171     -0.2867
    105  CB         9.9070   21.1200   55.5460 C.3   171  ILE171      0.0252
    106  CG1        9.5500   19.9110   54.7560 C.3   171  ILE171      0.0019
    107  CG2        9.0680   21.1630   56.7850 C.3   171  ILE171      0.0019
    108  CD1        9.9220   18.6450   55.4090 C.3   171  ILE171      0.0001
    109  N         10.8320   17.2540   64.2090 N.3   183  LEU183     -0.1245
    110  CA        11.3240   16.6750   62.9600 C.3   183  LEU183      0.1561
    111  C         12.7470   16.1510   63.1160 C.2   183  LEU183      0.2260
    112  O         13.6060   16.8680   63.6470 O.2   183  LEU183     -0.2867
    113  CB        11.1900   17.6560   61.8040 C.3   183  LEU183      0.0270
    114  CG        11.5990   17.2520   60.3760 C.3   183  LEU183      0.0019
    115  CD1       10.6210   16.0940   59.8500 C.3   183  LEU183      0.0001
    116  CD2       11.4720   18.4770   59.4740 C.3   183  LEU183      0.0001
    117  N         14.5820   18.4750   51.8260 N.3   204  PHE204     -0.1241
    118  CA        14.8700   17.0380   51.7610 C.3   204  PHE204      0.1605
    119  C         14.9200   16.6870   50.2300 C.2   204  PHE204      0.2264
    120  O         14.0070   17.0370   49.4350 O.2   204  PHE204     -0.2867
    121  CB        13.7710   16.1320   52.3120 C.3   204  PHE204      0.0534
    122  CG        13.6490   16.0470   53.8420 C.ar  204  PHE204     -0.0203
    123  CD1       14.6660   15.5690   54.5980 C.ar  204  PHE204     -0.0042
    124  CD2       12.5350   16.4480   54.4930 C.ar  204  PHE204     -0.0042
    125  CE1       14.4970   15.5030   56.0330 C.ar  204  PHE204     -0.0003
    126  CE2       12.3900   16.3760   55.9000 C.ar  204  PHE204     -0.0003
    127  CZ        13.3600   15.9370   56.6280 C.ar  204  PHE204     -0.0000
    128  N         13.2740   10.1470   57.3500 N.3   222  HIS222     -0.1241
    129  CA        12.9910   11.1500   58.3650 C.3   222  HIS222      0.1621
    130  C         11.6310   10.7350   59.0250 C.2   222  HIS222      0.2264
    131  O         10.8680    9.8650   58.5390 O.2   222  HIS222     -0.2867
    132  CB        12.9940   12.6160   57.7420 C.3   222  HIS222      0.0745
    133  CG        12.0660   12.7400   56.5690 C.ar  222  HIS222      0.0817
    134  ND1       12.3350   12.1180   55.4040 N.ar  222  HIS222     -0.2268
    135  CD2       10.8930   13.3700   56.4290 C.ar  222  HIS222      0.1154
    136  CE1       11.3420   12.3360   54.5710 C.ar  222  HIS222      0.1986
    137  NE2       10.4560   13.1150   55.1610 N.ar  222  HIS222     -0.2212
    138  N          8.6130   12.2270   62.4120 N.3   224  VAL224     -0.1245
    139  CA         8.2090   13.3080   63.2870 C.3   224  VAL224      0.1561
    140  C          7.9570   12.7140   64.6640 C.2   224  VAL224      0.2260
    141  O          7.0050   11.9420   64.8360 O.2   224  VAL224     -0.2867
    142  CB         6.9320   14.0430   62.7220 C.3   224  VAL224      0.0252
    143  CG1        6.5310   15.2080   63.6350 C.3   224  VAL224      0.0019
    144  CG2        7.1280   14.5980   61.3040 C.3   224  VAL224      0.0019
    145  N          2.2300   22.2610   66.9340 N.3   237  ARG237     -0.1245
    146  CA         3.1950   22.7290   65.9470 C.3   237  ARG237      0.1563
    147  C          2.5100   22.7800   64.5660 C.2   237  ARG237      0.2260
    148  O          1.4480   22.1890   64.3820 O.2   237  ARG237     -0.2867
    149  CB         4.4240   21.7990   65.8810 C.3   237  ARG237      0.0307
    150  CG         4.1930   20.5140   65.0720 C.3   237  ARG237      0.0489
    151  CD         5.3870   19.6030   64.9510 C.3   237  ARG237      0.2205
    152  NE         6.3740   19.9730   63.9290 N.pl3 237  ARG237     -0.0865
    153  CZ         6.4200   19.4560   62.7000 C.cat 237  ARG237      0.5346
    154  NH1        5.5210   18.5780   62.3500 N.pl3 237  ARG237      0.1354
    155  NH2        7.3780   19.8410   61.8280 N.pl3 237  ARG237      0.1354
    156  N          3.4500   22.7170   60.1270 N.3   239  SER239     -0.1217
    157  CA         4.4430   22.5870   59.0690 C.3   239  SER239      0.1889
    158  C          3.8190   22.8760   57.7110 C.2   239  SER239      0.2288
    159  O          2.6640   22.5970   57.5020 O.2   239  SER239     -0.2866
    160  CB         5.1370   21.2400   58.9720 C.3   239  SER239      0.2089
    161  OG         4.1630   20.2870   58.7980 O.3   239  SER239     -0.2183
    162  N          4.6270   21.8770   53.9810 N.3   241  VAL241     -0.1245
    163  CA         5.4340   20.8510   53.2740 C.3   241  VAL241      0.1561
    164  C          5.1350   20.9950   51.7770 C.2   241  VAL241      0.2260
    165  O          3.9680   20.8190   51.3910 O.2   241  VAL241     -0.2867
    166  CB         5.1330   19.4540   53.7720 C.3   241  VAL241      0.0252
    167  CG1        5.8620   18.5060   52.9920 C.3   241  VAL241      0.0019
    168  CG2        5.3980   19.3840   55.2930 C.3   241  VAL241      0.0019
    169  N          5.9260   19.5480   48.1070 N.3   243  PHE243     -0.1241
    170  CA         6.4450   18.4520   47.2940 C.3   243  PHE243      0.1605
    171  C          6.5370   18.8650   45.8690 C.2   243  PHE243      0.2264
    172  O          5.5120   19.1680   45.2240 O.2   243  PHE243     -0.2867
    173  CB         5.5330   17.2330   47.3750 C.3   243  PHE243      0.0534
    174  CG         5.3430   16.5810   48.7230 C.ar  243  PHE243     -0.0203
    175  CD1        4.1120   16.5030   49.2630 C.ar  243  PHE243     -0.0042
    176  CD2        6.3730   16.0380   49.3700 C.ar  243  PHE243     -0.0042
    177  CE1        3.9380   15.8800   50.4820 C.ar  243  PHE243     -0.0003
    178  CE2        6.1730   15.4280   50.5720 C.ar  243  PHE243     -0.0003
    179  CZ         4.9680   15.3480   51.0910 C.ar  243  PHE243     -0.0000
    180  N          3.2810    9.9980   47.7630 N.3   283  ASN283     -0.1225
    181  CA         4.2310   11.0020   48.1690 C.3   283  ASN283      0.1785
    182  C          5.3640   10.5360   49.0640 C.2   283  ASN283      0.2597
    183  O          6.4140   11.2130   49.0740 O.2   283  ASN283     -0.2718
    184  CB         3.5220   12.1220   48.9340 C.3   283  ASN283      0.1169
    185  CG         2.4660   12.7880   48.1250 C.2   283  ASN283      0.2627
    186  OD1        1.3370   13.0600   48.6080 O.2   283  ASN283     -0.2716
    187  ND2        2.8140   13.0650   46.8800 N.am  283  ASN283     -0.0877
    188  N          5.2210    9.4200   49.7590 N.am  284  ILE284     -0.1980
    189  CA         6.1630    8.9690   50.7440 C.3   284  ILE284      0.1595
    190  C          6.1740    7.4550   50.7260 C.2   284  ILE284      0.2287
    191  O          5.2560    6.8080   50.2460 O.2   284  ILE284     -0.2864
    192  CB         5.8790    9.4710   52.0990 C.3   284  ILE284      0.0276
    193  CG1        4.5050    8.9400   52.6270 C.3   284  ILE284      0.0022
    194  CG2        5.9130   11.0200   52.2000 C.3   284  ILE284      0.0022
    195  CD1        4.3440    8.9910   54.0090 C.3   284  ILE284      0.0001
@<TRIPOS>BOND
     1    26    24    1
     2    24    25    1
     3    24    23    2
     4    23    22    1
     5    22    21    1
     6    21    20    1
     7    27    28    1
     8   172   171    2
     9   171   170    1
    10    28    31    1
    11    28    29    1
    12    20    17    1
    13    31    32    1
    14   187   185   am
    15    19    18    2
    16    33    32    1
    17    29    30    2
    18   170   173    1
    19   170   169    1
    20   173   174    1
    21    18    17    1
    22     7     5    1
    23    32    34    1
    24    17    16    1
    25     6     5    1
    26   180   181    1
    27     5     2    1
    28   185   186    2
    29   185   184    1
    30   181   184    1
    31   181   182    1
    32    89    88    2
    33    94    95    1
    34   174   175   ar
    35   174   176   ar
    36    16    10   am
    37    88    87    1
    38   182   183    2
    39   182   188   am
    40   175   177   ar
    41   176   178   ar
    42    95    96    1
    43    95    98    1
    44   120   119    2
    45     2     1    1
    46     2     3    1
    47    99    98    1
    48   188   189    1
    49     4     3    2
    50    10    11    2
    51    10     9    1
    52     3     8   am
    53    45    43    1
    54    87    90    1
    55    87    86    1
    56    90    91    1
    57   119   118    1
    58   191   190    2
    59    96    97    2
    60    98   100    1
    61   177   179   ar
    62   178   179   ar
    63     8     9    1
    64   190   189    1
    65   189   192    1
    66    43    42    2
    67    43    44    1
    68     9    12    1
    69    42    41    1
    70    35    36    1
    71   165   164    2
    72    91    93   ar
    73    91    92   ar
    74    40    41    1
    75    40    39    1
    76   118   117    1
    77   118   121    1
    78   164   163    1
    79   192   194    1
    80   192   193    1
    81    12    13    1
    82   121   122    1
    83    36    39    1
    84    36    37    1
    85   193   195    1
    86   167   166    1
    87    13    14    1
    88   163   166    1
    89   163   162    1
    90   101   102    1
    91    37    38    2
    92   166   168    1
    93   122   124   ar
    94   122   123   ar
    95    83    85   ar
    96    83    81   ar
    97   124   126   ar
    98   136   137   ar
    99   136   134   ar
   100    15    14    1
   101   123   125   ar
   102   102   103    1
   103   102   105    1
   104   106   108    1
   105   106   105    1
   106    78    79    2
   107    78    77    1
   108    85    84   ar
   109   137   135   ar
   110    80    81    1
   111    80    77    1
   112    81    82   ar
   113   134   133   ar
   114   103   104    2
   115    77    76    1
   116   105   107    1
   117   126   127   ar
   118    56    54    1
   119   125   127   ar
   120    84    82   ar
   121   135   133   ar
   122   133   132    1
   123    53    54    2
   124    53    52    1
   125    54    55    1
   126    75    74    1
   127    51    52    1
   128    51    50    1
   129   128   129    1
   130   159   158    2
   131    46    47    1
   132   158   157    1
   133   132   129    1
   134    74    73    1
   135   129   130    1
   136    50    47    1
   137   131   130    2
   138    47    48    1
   139   161   160    1
   140   160   157    1
   141   157   156    1
   142    73    72    1
   143   116   114    1
   144   115   114    1
   145    48    49    2
   146   114   113    1
   147    72    69    1
   148    67    65   ar
   149    67    66   ar
   150   144   142    1
   151    65    63   ar
   152    70    69    1
   153    70    71    2
   154    69    68    1
   155   113   110    1
   156   155   153    1
   157    66    64   ar
   158   154   153    1
   159   138   139    1
   160    63    62   ar
   161   153   152    2
   162   142   139    1
   163   142   143    1
   164   110   111    1
   165   110   109    1
   166   111   112    2
   167   139   140    1
   168    64    62   ar
   169    62    61    1
   170   152   151    1
   171    57    58    1
   172   148   147    2
   173   147   146    1
   174   140   141    2
   175   151   150    1
   176    58    61    1
   177    58    59    1
   178   150   149    1
   179   149   146    1
   180   146   145    1
   181    59    60    2
