@<TRIPOS>MOLECULE
tmp/1unbA00.pdb
 124 114 0 0 0
SMALL
GASTEIGER

@<TRIPOS>ATOM
      1  N         -0.1220   21.8030   57.7010 N.3   152  ARG152     -0.1245
      2  CA        -0.7180   20.8940   58.6700 C.3   152  ARG152      0.1563
      3  C         -0.5230   21.4010   60.0930 C.2   152  ARG152      0.2260
      4  O          0.6500   21.5630   60.5180 O.2   152  ARG152     -0.2867
      5  CB        -0.0820   19.5250   58.5360 C.3   152  ARG152      0.0307
      6  CG        -0.5210   18.7810   57.3260 C.3   152  ARG152      0.0489
      7  CD        -0.6090   17.2500   57.4490 C.3   152  ARG152      0.2205
      8  NE         0.4080   16.5440   56.6530 N.pl3 152  ARG152     -0.0865
      9  CZ         0.6390   15.2330   56.7380 C.cat 152  ARG152      0.5346
     10  NH1       -0.0760   14.4830   57.5710 N.pl3 152  ARG152      0.1354
     11  NH2        1.5760   14.6660   55.9950 N.pl3 152  ARG152      0.1354
     12  N         -0.8940   20.6340   64.0740 N.3   154  PHE154     -0.1241
     13  CA        -0.8600   19.4760   64.9680 C.3   154  PHE154      0.1605
     14  C         -1.2050   20.0940   66.3490 C.2   154  PHE154      0.2264
     15  O         -0.4940   20.9690   66.8120 O.2   154  PHE154     -0.2867
     16  CB         0.5480   18.8780   64.9880 C.3   154  PHE154      0.0534
     17  CG         1.0990   18.4350   63.6210 C.ar  154  PHE154     -0.0203
     18  CD1        1.5230   19.3660   62.6900 C.ar  154  PHE154     -0.0042
     19  CD2        1.2220   17.0930   63.3000 C.ar  154  PHE154     -0.0042
     20  CE1        2.0330   18.9730   61.4830 C.ar  154  PHE154     -0.0003
     21  CE2        1.7330   16.6810   62.0640 C.ar  154  PHE154     -0.0003
     22  CZ         2.1370   17.6260   61.1590 C.ar  154  PHE154     -0.0000
     23  N          4.5690   11.0030   62.9030 N.3   159  MET159     -0.1245
     24  CA         4.7780   10.5560   61.5300 C.3   159  MET159      0.1570
     25  C          5.8360    9.4720   61.4950 C.2   159  MET159      0.2261
     26  O          6.9490    9.6960   61.9320 O.2   159  MET159     -0.2867
     27  CB         5.2360   11.7240   60.6940 C.3   159  MET159      0.0387
     28  CG         5.4740   11.4110   59.2680 C.3   159  MET159      0.0595
     29  SD         5.1370   12.7630   58.1720 S.3   159  MET159     -0.1393
     30  CE         4.1480   11.7330   56.9610 C.3   159  MET159      0.0692
     31  N         10.0530    7.4740   56.9640 N.3   162  HIS162     -0.1241
     32  CA         9.7920    7.3590   55.5450 C.3   162  HIS162      0.1621
     33  C         10.7890    8.1630   54.8280 C.2   162  HIS162      0.2264
     34  O         11.4520    9.0160   55.3920 O.2   162  HIS162     -0.2867
     35  CB         8.4110    7.7780   55.2190 C.3   162  HIS162      0.0745
     36  CG         8.1530    9.2220   55.3300 C.ar  162  HIS162      0.0817
     37  ND1        7.6130    9.7630   56.4560 N.ar  162  HIS162     -0.2268
     38  CD2        8.3410   10.2480   54.4630 C.ar  162  HIS162      0.1154
     39  CE1        7.4390   11.0590   56.2690 C.ar  162  HIS162      0.1986
     40  NE2        7.9280   11.3890   55.0850 N.ar  162  HIS162     -0.2212
     41  N         10.8180   10.5660   51.0520 N.3   164  ASP164     -0.1239
     42  CA         9.7930   11.2080   50.1690 C.3   164  ASP164      0.1674
     43  C         10.0810   10.7130   48.7780 C.2   164  ASP164      0.2266
     44  O         11.1940   10.3820   48.3990 O.2   164  ASP164     -0.2867
     45  CB         9.9150   12.7210   50.1900 C.3   164  ASP164      0.1410
     46  CG         9.5180   13.3370   51.4810 C.2   164  ASP164      0.3668
     47  OD1        9.0900   12.6410   52.4600 O.co2 164  ASP164     -0.2456
     48  OD2        9.6260   14.6430   51.5990 O.co2 164  ASP164     -0.2456
     49  N         10.3790   22.3730   53.4870 N.3   171  ILE171     -0.1245
     50  CA         9.6320   22.3430   54.7100 C.3   171  ILE171      0.1561
     51  C          9.8640   23.6270   55.4920 C.2   171  ILE171      0.2260
     52  O         11.0330   23.9580   55.8830 O.2   171  ILE171     -0.2867
     53  CB         9.9070   21.1200   55.5460 C.3   171  ILE171      0.0252
     54  CG1        9.5500   19.9110   54.7560 C.3   171  ILE171      0.0019
     55  CG2        9.0680   21.1630   56.7850 C.3   171  ILE171      0.0019
     56  CD1        9.9220   18.6450   55.4090 C.3   171  ILE171      0.0001
     57  N         10.8320   17.2540   64.2090 N.3   183  LEU183     -0.1245
     58  CA        11.3240   16.6750   62.9600 C.3   183  LEU183      0.1561
     59  C         12.7470   16.1510   63.1160 C.2   183  LEU183      0.2260
     60  O         13.6060   16.8680   63.6470 O.2   183  LEU183     -0.2867
     61  CB        11.1900   17.6560   61.8040 C.3   183  LEU183      0.0270
     62  CG        11.5990   17.2520   60.3760 C.3   183  LEU183      0.0019
     63  CD1       10.6210   16.0940   59.8500 C.3   183  LEU183      0.0001
     64  CD2       11.4720   18.4770   59.4740 C.3   183  LEU183      0.0001
     65  N         13.2740   10.1470   57.3500 N.3   222  HIS222     -0.1241
     66  CA        12.9910   11.1500   58.3650 C.3   222  HIS222      0.1621
     67  C         11.6310   10.7350   59.0250 C.2   222  HIS222      0.2264
     68  O         10.8680    9.8650   58.5390 O.2   222  HIS222     -0.2867
     69  CB        12.9940   12.6160   57.7420 C.3   222  HIS222      0.0745
     70  CG        12.0660   12.7400   56.5690 C.ar  222  HIS222      0.0817
     71  ND1       12.3350   12.1180   55.4040 N.ar  222  HIS222     -0.2268
     72  CD2       10.8930   13.3700   56.4290 C.ar  222  HIS222      0.1154
     73  CE1       11.3420   12.3360   54.5710 C.ar  222  HIS222      0.1986
     74  NE2       10.4560   13.1150   55.1610 N.ar  222  HIS222     -0.2212
     75  N          8.6130   12.2270   62.4120 N.3   224  VAL224     -0.1245
     76  CA         8.2090   13.3080   63.2870 C.3   224  VAL224      0.1561
     77  C          7.9570   12.7140   64.6640 C.2   224  VAL224      0.2260
     78  O          7.0050   11.9420   64.8360 O.2   224  VAL224     -0.2867
     79  CB         6.9320   14.0430   62.7220 C.3   224  VAL224      0.0252
     80  CG1        6.5310   15.2080   63.6350 C.3   224  VAL224      0.0019
     81  CG2        7.1280   14.5980   61.3040 C.3   224  VAL224      0.0019
     82  N          2.2300   22.2610   66.9340 N.3   237  ARG237     -0.1245
     83  CA         3.1950   22.7290   65.9470 C.3   237  ARG237      0.1563
     84  C          2.5100   22.7800   64.5660 C.2   237  ARG237      0.2260
     85  O          1.4480   22.1890   64.3820 O.2   237  ARG237     -0.2867
     86  CB         4.4240   21.7990   65.8810 C.3   237  ARG237      0.0307
     87  CG         4.1930   20.5140   65.0720 C.3   237  ARG237      0.0489
     88  CD         5.3870   19.6030   64.9510 C.3   237  ARG237      0.2205
     89  NE         6.3740   19.9730   63.9290 N.pl3 237  ARG237     -0.0865
     90  CZ         6.4200   19.4560   62.7000 C.cat 237  ARG237      0.5346
     91  NH1        5.5210   18.5780   62.3500 N.pl3 237  ARG237      0.1354
     92  NH2        7.3780   19.8410   61.8280 N.pl3 237  ARG237      0.1354
     93  N          3.4500   22.7170   60.1270 N.3   239  SER239     -0.1217
     94  CA         4.4430   22.5870   59.0690 C.3   239  SER239      0.1889
     95  C          3.8190   22.8760   57.7110 C.2   239  SER239      0.2288
     96  O          2.6640   22.5970   57.5020 O.2   239  SER239     -0.2866
     97  CB         5.1370   21.2400   58.9720 C.3   239  SER239      0.2089
     98  OG         4.1630   20.2870   58.7980 O.3   239  SER239     -0.2183
     99  N          4.6270   21.8770   53.9810 N.3   241  VAL241     -0.1245
    100  CA         5.4340   20.8510   53.2740 C.3   241  VAL241      0.1561
    101  C          5.1350   20.9950   51.7770 C.2   241  VAL241      0.2260
    102  O          3.9680   20.8190   51.3910 O.2   241  VAL241     -0.2867
    103  CB         5.1330   19.4540   53.7720 C.3   241  VAL241      0.0252
    104  CG1        5.8620   18.5060   52.9920 C.3   241  VAL241      0.0019
    105  CG2        5.3980   19.3840   55.2930 C.3   241  VAL241      0.0019
    106  N          5.9260   19.5480   48.1070 N.3   243  PHE243     -0.1241
    107  CA         6.4450   18.4520   47.2940 C.3   243  PHE243      0.1605
    108  C          6.5370   18.8650   45.8690 C.2   243  PHE243      0.2264
    109  O          5.5120   19.1680   45.2240 O.2   243  PHE243     -0.2867
    110  CB         5.5330   17.2330   47.3750 C.3   243  PHE243      0.0534
    111  CG         5.3430   16.5810   48.7230 C.ar  243  PHE243     -0.0203
    112  CD1        4.1120   16.5030   49.2630 C.ar  243  PHE243     -0.0042
    113  CD2        6.3730   16.0380   49.3700 C.ar  243  PHE243     -0.0042
    114  CE1        3.9380   15.8800   50.4820 C.ar  243  PHE243     -0.0003
    115  CE2        6.1730   15.4280   50.5720 C.ar  243  PHE243     -0.0003
    116  CZ         4.9680   15.3480   51.0910 C.ar  243  PHE243     -0.0000
    117  N          5.2210    9.4200   49.7590 N.3   284  ILE284     -0.1245
    118  CA         6.1630    8.9690   50.7440 C.3   284  ILE284      0.1561
    119  C          6.1740    7.4550   50.7260 C.2   284  ILE284      0.2260
    120  O          5.2560    6.8080   50.2460 O.2   284  ILE284     -0.2867
    121  CB         5.8790    9.4710   52.0990 C.3   284  ILE284      0.0252
    122  CG1        4.5050    8.9400   52.6270 C.3   284  ILE284      0.0019
    123  CG2        5.9130   11.0200   52.2000 C.3   284  ILE284      0.0019
    124  CD1        4.3440    8.9910   54.0090 C.3   284  ILE284      0.0001
@<TRIPOS>BOND
     1   109   108    2
     2   108   107    1
     3   107   110    1
     4   107   106    1
     5   110   111    1
     6    44    43    2
     7   111   112   ar
     8   111   113   ar
     9    43    42    1
    10   112   114   ar
    11   113   115   ar
    12   117   118    1
    13    42    45    1
    14    42    41    1
    15    45    46    1
    16   120   119    2
    17   114   116   ar
    18   115   116   ar
    19   119   118    1
    20   118   121    1
    21   102   101    2
    22    46    48   ar
    23    46    47   ar
    24   101   100    1
    25   121   123    1
    26   121   122    1
    27   122   124    1
    28   104   103    1
    29   100   103    1
    30   100    99    1
    31    49    50    1
    32   103   105    1
    33    38    40   ar
    34    38    36   ar
    35    73    74   ar
    36    73    71   ar
    37    50    51    1
    38    50    53    1
    39    54    56    1
    40    54    53    1
    41    33    34    2
    42    33    32    1
    43    40    39   ar
    44    74    72   ar
    45    35    36    1
    46    35    32    1
    47    36    37   ar
    48    71    70   ar
    49    51    52    2
    50    32    31    1
    51    53    55    1
    52    11     9    1
    53    39    37   ar
    54    72    70   ar
    55    70    69    1
    56     8     9    2
    57     8     7    1
    58     9    10    1
    59    30    29    1
    60     6     7    1
    61     6     5    1
    62    65    66    1
    63    96    95    2
    64     1     2    1
    65    95    94    1
    66    69    66    1
    67    29    28    1
    68    66    67    1
    69     5     2    1
    70    68    67    2
    71     2     3    1
    72    98    97    1
    73    97    94    1
    74    94    93    1
    75    28    27    1
    76    64    62    1
    77    63    62    1
    78     3     4    2
    79    62    61    1
    80    27    24    1
    81    22    20   ar
    82    22    21   ar
    83    81    79    1
    84    20    18   ar
    85    25    24    1
    86    25    26    2
    87    24    23    1
    88    61    58    1
    89    92    90    1
    90    21    19   ar
    91    91    90    1
    92    75    76    1
    93    18    17   ar
    94    90    89    2
    95    79    76    1
    96    79    80    1
    97    58    59    1
    98    58    57    1
    99    59    60    2
   100    76    77    1
   101    19    17   ar
   102    17    16    1
   103    89    88    1
   104    12    13    1
   105    85    84    2
   106    84    83    1
   107    77    78    2
   108    88    87    1
   109    13    16    1
   110    13    14    1
   111    87    86    1
   112    86    83    1
   113    83    82    1
   114    14    15    2
