@<TRIPOS>MOLECULE
tmp/1ungB00.pdb
 137 130 0 0 0
SMALL
GASTEIGER

@<TRIPOS>ATOM
      1  N         65.3880   34.9810   33.4620 N.3     8  LYS8       -0.1245
      2  CA        65.5810   34.0110   34.5530 C.3     8  LYS8        0.1561
      3  C         64.3210   33.5570   35.3180 C.2     8  LYS8        0.2260
      4  O         64.2010   32.3830   35.7170 O.2     8  LYS8       -0.2867
      5  CB        66.7420   34.4790   35.4840 C.3     8  LYS8        0.0271
      6  CG        66.4850   34.4320   36.9990 C.3     8  LYS8        0.0035
      7  CD        66.9420   33.1090   37.6320 C.3     8  LYS8        0.0206
      8  CE        67.5800   33.3320   39.0080 C.3     8  LYS8        0.1093
      9  NZ        68.6370   34.4030   38.9800 N.3     8  LYS8       -0.1314
     10  N         68.6360   28.8960   36.2050 N.3    10  VAL10      -0.1245
     11  CA        67.9610   28.4040   34.9730 C.3    10  VAL10       0.1561
     12  C         67.5040   29.5830   34.0660 C.2    10  VAL10       0.2260
     13  O         67.1860   30.6640   34.5650 O.2    10  VAL10      -0.2867
     14  CB        66.7980   27.4250   35.2990 C.3    10  VAL10       0.0252
     15  CG1       66.1590   26.8460   34.0360 C.3    10  VAL10       0.0019
     16  CG2       67.2880   26.2890   36.1810 C.3    10  VAL10       0.0019
     17  N         65.7810   25.6310   27.4600 N.3    16  ALA16      -0.1245
     18  CA        66.0660   26.0280   28.8220 C.3    16  ALA16       0.1562
     19  C         67.4720   25.6150   29.1890 C.2    16  ALA16       0.2260
     20  O         67.7830   24.4270   29.1600 O.2    16  ALA16      -0.2867
     21  CB        65.0770   25.3820   29.7700 C.3    16  ALA16       0.0290
     22  N         60.8650   16.1890   31.5520 N.3    45  VAL45      -0.1245
     23  CA        61.6380   17.2170   30.8680 C.3    45  VAL45       0.1561
     24  C         62.8690   16.5910   30.1060 C.2    45  VAL45       0.2260
     25  O         63.7870   16.0660   30.7080 O.2    45  VAL45      -0.2867
     26  CB        62.0180   18.3470   31.8720 C.3    45  VAL45       0.0252
     27  CG1       63.0160   17.8320   32.9470 C.3    45  VAL45       0.0019
     28  CG2       62.5360   19.5480   31.1340 C.3    45  VAL45       0.0019
     29  N         67.9320   21.9700   28.3930 N.3    61  PHE61      -0.1227
     30  CA        66.6600   21.2640   28.4210 C.3    61  PHE61       0.1736
     31  C         65.7440   21.7560   27.3280 C.2    61  PHE61       0.2595
     32  O         65.9150   22.8590   26.8190 O.2    61  PHE61      -0.2718
     33  CB        65.9630   21.4230   29.7970 C.3    61  PHE61       0.0547
     34  CG        66.6880   20.7490   30.9360 C.ar   61  PHE61      -0.0202
     35  CD1       67.7210   21.4070   31.6120 C.ar   61  PHE61      -0.0042
     36  CD2       66.3360   19.4590   31.3440 C.ar   61  PHE61      -0.0042
     37  CE1       68.4070   20.8030   32.6640 C.ar   61  PHE61      -0.0003
     38  CE2       67.0140   18.8340   32.4170 C.ar   61  PHE61      -0.0003
     39  CZ        68.0590   19.5140   33.0780 C.ar   61  PHE61      -0.0000
     40  N         64.7540   20.9450   26.9830 N.am   62  GLU62      -0.1965
     41  CA        63.5870   21.4660   26.2760 C.3    62  GLU62       0.1733
     42  C         63.0200   22.5710   27.1490 C.2    62  GLU62       0.2616
     43  O         63.0660   22.4870   28.3710 O.2    62  GLU62      -0.2715
     44  CB        62.5310   20.3770   26.0330 C.3    62  GLU62       0.0429
     45  CG        61.7240   19.9710   27.2580 C.3    62  GLU62       0.1163
     46  CD        60.6570   18.9300   26.9510 C.2    62  GLU62       0.3649
     47  OE1       60.7290   17.8040   27.5110 O.co2  62  GLU62      -0.2457
     48  OE2       59.7450   19.2400   26.1440 O.co2  62  GLU62      -0.2457
     49  N         62.5220   23.6290   26.5330 N.am   63  PHE63      -0.1960
     50  CA        61.8790   24.6750   27.3120 C.3    63  PHE63       0.1771
     51  C         60.4170   24.3610   27.5530 C.2    63  PHE63       0.2620
     52  O         59.7090   23.9150   26.6460 O.2    63  PHE63      -0.2715
     53  CB        61.9890   25.9790   26.5810 C.3    63  PHE63       0.0574
     54  CG        61.1240   27.0810   27.1280 C.ar   63  PHE63      -0.0200
     55  CD1       59.8760   27.3500   26.5550 C.ar   63  PHE63      -0.0042
     56  CD2       61.5930   27.9070   28.1520 C.ar   63  PHE63      -0.0042
     57  CE1       59.0930   28.4110   27.0030 C.ar   63  PHE63      -0.0003
     58  CE2       60.8110   28.9700   28.6210 C.ar   63  PHE63      -0.0003
     59  CZ        59.5610   29.2250   28.0390 C.ar   63  PHE63      -0.0000
     60  N         59.9820   24.6030   28.7860 N.am   64  CYS64      -0.1954
     61  CA        58.5800   24.6130   29.1550 C.3    64  CYS64       0.1843
     62  C         58.1590   26.0030   29.6190 C.2    64  CYS64       0.2625
     63  O         58.9250   26.7180   30.2900 O.2    64  CYS64      -0.2714
     64  CB        58.3420   23.5910   30.2630 C.3    64  CYS64       0.0997
     65  SG        58.5040   21.8750   29.6660 S.3    64  CYS64      -0.0797
     66  N         56.9290   26.3570   29.2660 N.am   65  ASP65      -0.1957
     67  CA        56.3760   27.6990   29.4320 C.3    65  ASP65       0.1840
     68  C         56.2550   28.1730   30.9020 C.2    65  ASP65       0.2622
     69  O         56.7160   29.2690   31.2420 O.2    65  ASP65      -0.2715
     70  CB        55.0270   27.7760   28.6980 C.3    65  ASP65       0.1450
     71  CG        55.1420   27.3930   27.1970 C.2    65  ASP65       0.3671
     72  OD1       54.3580   26.5490   26.7070 O.co2  65  ASP65      -0.2456
     73  OD2       55.9880   27.9030   26.4170 O.co2  65  ASP65      -0.2456
     74  N         55.6720   27.3510   31.7730 N.am   66  GLN66      -0.1963
     75  CA        55.4650   27.7630   33.1560 C.3    66  GLN66       0.1733
     76  C         55.5010   26.5330   34.0940 C.2    66  GLN66       0.2616
     77  O         55.4950   25.3910   33.6140 O.2    66  GLN66      -0.2715
     78  CB        54.1360   28.5080   33.2880 C.3    66  GLN66       0.0408
     79  CG        52.9300   27.6300   32.9920 C.3    66  GLN66       0.0908
     80  CD        51.6330   28.3900   32.7950 C.2    66  GLN66       0.2608
     81  OE1       51.2030   29.1440   33.6450 O.2    66  GLN66      -0.2717
     82  NE2       50.9950   28.1510   31.6790 N.am   66  GLN66      -0.0878
     83  N         55.5370   26.7690   35.4100 N.am   67  ASP67      -0.1971
     84  CA        55.3370   25.6790   36.3650 C.3    67  ASP67       0.1709
     85  C         53.8790   25.5980   36.8430 C.2    67  ASP67       0.2293
     86  O         53.0710   26.4490   36.5090 O.2    67  ASP67      -0.2864
     87  CB        56.3600   25.6960   37.5100 C.3    67  ASP67       0.1436
     88  CG        56.3130   26.9720   38.3580 C.2    67  ASP67       0.3671
     89  OD1       55.3180   27.7470   38.3050 O.co2  67  ASP67      -0.2456
     90  OD2       57.2500   27.2730   39.1370 O.co2  67  ASP67      -0.2456
     91  N         52.9010   28.8440   38.8860 N.3    70  LYS70      -0.1245
     92  CA        52.4290   29.9840   38.0900 C.3    70  LYS70       0.1561
     93  C         51.1080   29.6460   37.3590 C.2    70  LYS70       0.2260
     94  O         50.2690   30.5200   37.1410 O.2    70  LYS70      -0.2867
     95  CB        53.5510   30.4610   37.1470 C.3    70  LYS70       0.0271
     96  CG        53.1620   31.2780   35.9420 C.3    70  LYS70       0.0035
     97  CD        54.2360   32.3240   35.6600 C.3    70  LYS70       0.0206
     98  CE        54.0870   32.9490   34.2910 C.3    70  LYS70       0.1093
     99  NZ        53.9860   34.4320   34.4050 N.3    70  LYS70      -0.1314
    100  N         56.3310   23.3830   41.9160 N.3   111  GLN111     -0.1231
    101  CA        57.4240   24.0810   41.2270 C.3   111  GLN111      0.1698
    102  C         58.1890   23.1450   40.2570 C.2   111  GLN111      0.2592
    103  O         58.8340   23.5910   39.3230 O.2   111  GLN111     -0.2718
    104  CB        58.4180   24.6600   42.2400 C.3   111  GLN111      0.0381
    105  CG        57.9580   25.9080   43.0190 C.3   111  GLN111      0.0905
    106  CD        57.3680   25.5540   44.4220 C.2   111  GLN111      0.2608
    107  OE1       56.7680   24.4750   44.6370 O.2   111  GLN111     -0.2717
    108  NE2       57.5270   26.4710   45.3520 N.am  111  GLN111     -0.0878
    109  N         58.0870   21.8360   40.4790 N.am  112  ASN112     -0.1974
    110  CA        58.8380   20.8890   39.7000 C.3   112  ASN112      0.1688
    111  C         57.9750   20.2300   38.6480 C.2   112  ASN112      0.2292
    112  O         58.4250   19.3170   37.9670 O.2   112  ASN112     -0.2864
    113  CB        59.4540   19.8740   40.6130 C.3   112  ASN112      0.1181
    114  CG        60.5850   20.4500   41.4410 C.2   112  ASN112      0.2629
    115  OD1       60.9920   19.8460   42.4460 O.2   112  ASN112     -0.2716
    116  ND2       61.1000   21.6080   41.0370 N.am  112  ASN112     -0.0877
    117  N         56.2010   21.0030   35.1690 N.3   114  LEU114     -0.1245
    118  CA        56.1990   22.0090   34.1100 C.3   114  LEU114      0.1561
    119  C         55.0220   21.8330   33.1590 C.2   114  LEU114      0.2260
    120  O         54.6580   20.7170   32.8240 O.2   114  LEU114     -0.2867
    121  CB        57.5200   21.9930   33.3570 C.3   114  LEU114      0.0270
    122  CG        58.7640   22.1700   34.2290 C.3   114  LEU114      0.0019
    123  CD1       59.9950   22.2640   33.3360 C.3   114  LEU114      0.0001
    124  CD2       58.7020   23.3850   35.1210 C.3   114  LEU114      0.0001
    125  N         60.0830   17.4700   36.3420 N.3   124  ALA124     -0.1231
    126  CA        61.3430   18.1830   36.2170 C.3   124  ALA124      0.1694
    127  C         62.1460   18.0760   37.5000 C.2   124  ALA124      0.2592
    128  O         61.6320   17.5520   38.4980 O.2   124  ALA124     -0.2718
    129  CB        61.0480   19.6410   35.9160 C.3   124  ALA124      0.0304
    130  N         63.3860   18.5850   37.4830 N.am  125  ASN125     -0.1974
    131  CA        64.2360   18.7510   38.6930 C.3   125  ASN125      0.1688
    132  C         64.5530   17.4540   39.4330 C.2   125  ASN125      0.2292
    133  O         63.9570   17.1570   40.4820 O.2   125  ASN125     -0.2864
    134  CB        63.6750   19.8350   39.6530 C.3   125  ASN125      0.1181
    135  CG        64.5530   20.0570   40.9120 C.2   125  ASN125      0.2629
    136  OD1       64.9850   19.0920   41.5870 O.2   125  ASN125     -0.2716
    137  ND2       64.7730   21.3260   41.2730 N.am  125  ASN125     -0.0877
@<TRIPOS>BOND
     1    44    41    1
     2    44    45    1
     3    48    46   ar
     4    41    40    1
     5    41    42    1
     6    73    71   ar
     7    49    42   am
     8    49    50    1
     9    55    57   ar
    10    55    54   ar
    11    53    54    1
    12    53    50    1
    13    52    51    2
    14    72    71   ar
    15    32    31    2
    16    46    45    1
    17    46    47   ar
    18    40    31   am
    19    57    59   ar
    20    54    56   ar
    21    42    43    2
    22    71    70    1
    23    50    51    1
    24    31    30    1
    25    17    18    1
    26    51    60   am
    27    59    58   ar
    28    56    58   ar
    29    29    30    1
    30    30    33    1
    31    70    67    1
    32    60    61    1
    33    18    19    1
    34    18    21    1
    35    61    62    1
    36    61    64    1
    37    20    19    2
    38    66    67    1
    39    66    62   am
    40    67    68    1
    41    62    63    2
    42    65    64    1
    43    33    34    1
    44    24    25    2
    45    24    23    1
    46    23    22    1
    47    23    26    1
    48    68    69    2
    49    68    74   am
    50    34    36   ar
    51    34    35   ar
    52    28    26    1
    53    36    38   ar
    54    35    37   ar
    55    82    80   am
    56    74    75    1
    57    26    27    1
    58    38    39   ar
    59    37    39   ar
    60    80    79    1
    61    80    81    2
    62   120   119    2
    63    79    78    1
    64    75    78    1
    65    75    76    1
    66   119   118    1
    67   123   122    1
    68   121   118    1
    69   121   122    1
    70     1     2    1
    71    77    76    2
    72    15    14    1
    73    12    13    2
    74    12    11    1
    75    76    83   am
    76   118   117    1
    77   122   124    1
    78    98    99    1
    79    98    97    1
    80     2     3    1
    81     2     5    1
    82    11    14    1
    83    11    10    1
    84    14    16    1
    85     3     4    2
    86    83    84    1
    87     5     6    1
    88    97    96    1
    89   129   126    1
    90    96    95    1
    91   126   125    1
    92   126   127    1
    93    84    85    1
    94    84    87    1
    95    86    85    2
    96     6     7    1
    97    94    93    2
    98    95    92    1
    99    93    92    1
   100   130   127   am
   101   130   131    1
   102   127   128    2
   103    87    88    1
   104     7     8    1
   105   112   111    2
   106    92    91    1
   107    89    88   ar
   108    88    90   ar
   109   111   110    1
   110   131   132    1
   111   131   134    1
   112     9     8    1
   113   103   102    2
   114   132   133    2
   115   134   135    1
   116   110   109    1
   117   110   113    1
   118   102   109   am
   119   102   101    1
   120   113   114    1
   121   135   137   am
   122   135   136    2
   123   116   114   am
   124   101   100    1
   125   101   104    1
   126   114   115    2
   127   104   105    1
   128   105   106    1
   129   106   107    2
   130   106   108   am
