@<TRIPOS>MOLECULE
tmp/1unhA00.pdb
 137 129 0 0 0
SMALL
GASTEIGER

@<TRIPOS>ATOM
      1  N         35.7830   23.5430   29.1080 N.3     9  ILE9       -0.1245
      2  CA        37.0340   22.8690   28.6860 C.3     9  ILE9        0.1561
      3  C         37.0720   22.6120   27.1720 C.2     9  ILE9        0.2260
      4  O         38.1450   22.3780   26.5830 O.2     9  ILE9       -0.2867
      5  CB        37.2560   21.5450   29.4300 C.3     9  ILE9        0.0252
      6  CG1       37.4700   21.7900   30.9310 C.3     9  ILE9        0.0019
      7  CG2       38.4430   20.7950   28.8130 C.3     9  ILE9        0.0019
      8  CD1       37.5810   20.4760   31.7760 C.3     9  ILE9        0.0001
      9  N         33.2350   17.9800   27.4780 N.3    13  VAL13      -0.1245
     10  CA        33.5820   18.1380   28.8910 C.3    13  VAL13       0.1561
     11  C         33.6040   19.5830   29.3680 C.2    13  VAL13       0.2260
     12  O         34.3320   20.4140   28.8340 O.2    13  VAL13      -0.2867
     13  CB        34.9710   17.5160   29.2290 C.3    13  VAL13       0.0252
     14  CG1       35.0660   17.2130   30.7180 C.3    13  VAL13       0.0019
     15  CG2       35.2790   16.2730   28.3720 C.3    13  VAL13       0.0019
     16  N         33.6950   17.7670   36.6100 N.3    24  ALA24      -0.1245
     17  CA        33.6350   17.8640   35.1600 C.3    24  ALA24       0.1562
     18  C         32.3470   17.2170   34.6660 C.2    24  ALA24       0.2260
     19  O         32.0430   16.0990   35.0450 O.2    24  ALA24      -0.2867
     20  CB        34.8320   17.1900   34.5440 C.3    24  ALA24       0.0290
     21  N         30.1980   15.6630   31.3970 N.3    26  LYS26      -0.1245
     22  CA        30.2010   15.2180   30.0040 C.3    26  LYS26       0.1561
     23  C         28.7580   15.1350   29.5440 C.2    26  LYS26       0.2260
     24  O         27.9900   14.2920   30.0150 O.2    26  LYS26      -0.2867
     25  CB        30.8860   13.8570   29.8850 C.3    26  LYS26       0.0271
     26  CG        31.3910   13.4950   28.4860 C.3    26  LYS26       0.0035
     27  CD        31.8660   12.0630   28.4070 C.3    26  LYS26       0.0206
     28  CE        33.3470   11.9880   28.5390 C.3    26  LYS26       0.1093
     29  NZ        33.8920   10.5800   28.4910 N.3    26  LYS26      -0.1314
     30  N         39.5780    7.6270   36.5220 N.3    53  VAL53      -0.1245
     31  CA        38.6790    8.7450   36.8010 C.3    53  VAL53       0.1561
     32  C         37.4000    8.2410   37.4990 C.2    53  VAL53       0.2260
     33  O         36.8950    7.1740   37.1570 O.2    53  VAL53      -0.2867
     34  CB        38.3380    9.6000   35.5410 C.3    53  VAL53       0.0252
     35  CG1       37.5030    8.8010   34.4810 C.3    53  VAL53       0.0019
     36  CG2       37.6160   10.9110   35.9520 C.3    53  VAL53       0.0019
     37  N         31.7290   13.6990   36.5990 N.3    69  PHE69      -0.1227
     38  CA        32.9940   13.0550   36.9520 C.3    69  PHE69       0.1736
     39  C         33.7910   13.9280   37.8920 C.2    69  PHE69       0.2595
     40  O         33.5700   15.1180   37.9330 O.2    69  PHE69      -0.2718
     41  CB        33.8490   12.9400   35.7070 C.3    69  PHE69       0.0547
     42  CG        33.4210   11.8900   34.7490 C.ar   69  PHE69      -0.0202
     43  CD1       32.6700   12.2400   33.6200 C.ar   69  PHE69      -0.0042
     44  CD2       33.8530   10.5620   34.9010 C.ar   69  PHE69      -0.0042
     45  CE1       32.3250   11.2870   32.6640 C.ar   69  PHE69      -0.0003
     46  CE2       33.5170    9.5980   33.9470 C.ar   69  PHE69      -0.0003
     47  CZ        32.7510    9.9580   32.8220 C.ar   69  PHE69      -0.0000
     48  N         34.7730   13.3700   38.5880 N.am   70  GLU70      -0.1965
     49  CA        35.7840   14.2160   39.2500 C.3    70  GLU70       0.1733
     50  C         36.4930   15.0920   38.2180 C.2    70  GLU70       0.2616
     51  O         36.5340   14.7790   37.0160 O.2    70  GLU70      -0.2715
     52  CB        36.8030   13.4000   40.0720 C.3    70  GLU70       0.0429
     53  CG        37.7550   12.5710   39.2570 C.3    70  GLU70       0.1163
     54  CD        38.7720   11.7900   40.0860 C.2    70  GLU70       0.3649
     55  OE1       39.7300   12.3990   40.6550 O.co2  70  GLU70      -0.2457
     56  OE2       38.6460   10.5450   40.1260 O.co2  70  GLU70      -0.2457
     57  N         37.0510   16.1820   38.7090 N.am   71  PHE71      -0.1960
     58  CA        37.7630   17.1440   37.9140 C.3    71  PHE71       0.1771
     59  C         39.2450   16.9390   38.1550 C.2    71  PHE71       0.2620
     60  O         39.6780   16.8100   39.3080 O.2    71  PHE71      -0.2715
     61  CB        37.3750   18.5660   38.3650 C.3    71  PHE71       0.0574
     62  CG        38.2110   19.6630   37.7340 C.ar   71  PHE71      -0.0200
     63  CD1       39.1620   20.3480   38.4770 C.ar   71  PHE71      -0.0042
     64  CD2       38.0480   19.9960   36.4030 C.ar   71  PHE71      -0.0042
     65  CE1       39.9360   21.3610   37.9020 C.ar   71  PHE71      -0.0003
     66  CE2       38.8220   21.0120   35.8170 C.ar   71  PHE71      -0.0003
     67  CZ        39.7640   21.6860   36.5750 C.ar   71  PHE71      -0.0000
     68  N         40.0160   16.8860   37.0680 N.am   72  CYS72      -0.1954
     69  CA        41.4650   16.9850   37.1230 C.3    72  CYS72       0.1843
     70  C         41.9590   18.1890   36.3500 C.2    72  CYS72       0.2625
     71  O         41.4420   18.5470   35.2830 O.2    72  CYS72      -0.2714
     72  CB        42.1460   15.7000   36.6230 C.3    72  CYS72       0.0997
     73  SG        41.3950   14.1970   37.2910 S.3    72  CYS72      -0.0797
     74  N         42.9920   18.7940   36.9060 N.am   73  ASP73      -0.1957
     75  CA        43.5270   20.0500   36.4100 C.3    73  ASP73       0.1840
     76  C         43.9320   20.0360   34.9130 C.2    73  ASP73       0.2622
     77  O         43.7170   21.0020   34.2090 O.2    73  ASP73      -0.2715
     78  CB        44.6560   20.4890   37.3490 C.3    73  ASP73       0.1450
     79  CG        44.1610   20.7260   38.7840 C.2    73  ASP73       0.3671
     80  OD1       44.1880   21.9020   39.1720 O.co2  73  ASP73      -0.2456
     81  OD2       43.7290   19.8530   39.5930 O.co2  73  ASP73      -0.2456
     82  N         44.4860   18.9360   34.4200 N.am   74  GLN74      -0.1963
     83  CA        44.7840   18.8340   32.9980 C.3    74  GLN74       0.1733
     84  C         44.8680   17.3830   32.4730 C.2    74  GLN74       0.2616
     85  O         44.9710   16.4430   33.2490 O.2    74  GLN74      -0.2715
     86  CB        46.0070   19.6810   32.6160 C.3    74  GLN74       0.0408
     87  CG        47.3690   19.1910   33.0480 C.3    74  GLN74       0.0908
     88  CD        48.3620   20.3480   33.4170 C.2    74  GLN74       0.2608
     89  OE1       48.5050   21.3370   32.6740 O.2    74  GLN74      -0.2717
     90  NE2       49.0780   20.1790   34.5360 N.am   74  GLN74      -0.0878
     91  N         44.7860   17.2200   31.1560 N.am   75  ASP75      -0.1971
     92  CA        45.1870   15.9740   30.5120 C.3    75  ASP75       0.1709
     93  C         46.6960   15.9530   30.2570 C.2    75  ASP75       0.2293
     94  O         47.3380   17.0070   30.2510 O.2    75  ASP75      -0.2864
     95  CB        44.3620   15.7200   29.2190 C.3    75  ASP75       0.1436
     96  CG        44.7090   16.6800   28.0570 C.2    75  ASP75       0.3671
     97  OD1       45.6010   17.5500   28.1820 O.co2  75  ASP75      -0.2456
     98  OD2       44.1330   16.6250   26.9400 O.co2  75  ASP75      -0.2456
     99  N         48.1440   18.4950   27.5350 N.3    78  LYS78      -0.1245
    100  CA        48.3200   19.8690   28.0130 C.3    78  LYS78       0.1561
    101  C         49.4520   19.9520   29.0550 C.2    78  LYS78       0.2260
    102  O         50.1540   20.9630   29.1630 O.2    78  LYS78      -0.2867
    103  CB        46.9980   20.3780   28.5890 C.3    78  LYS78       0.0271
    104  CG        46.9520   21.8460   28.9030 C.3    78  LYS78       0.0035
    105  CD        45.7550   22.1670   29.8040 C.3    78  LYS78       0.0206
    106  CE        45.3550   23.6260   29.7050 C.3    78  LYS78       0.1093
    107  NZ        44.3200   23.8880   30.7530 N.3    78  LYS78      -0.1314
    108  N         45.7370   12.2360   25.5260 N.3   119  GLN119     -0.1245
    109  CA        44.5060   12.9650   25.7850 C.3   119  GLN119      0.1566
    110  C         43.5320   12.2440   26.7090 C.2   119  GLN119      0.2260
    111  O         42.7130   12.8960   27.3130 O.2   119  GLN119     -0.2867
    112  CB        43.8010   13.3860   24.4890 C.3   119  GLN119      0.0367
    113  CG        44.0770   12.4090   23.3980 C.3   119  GLN119      0.0905
    114  CD        45.2420   12.8340   22.4730 C.2   119  GLN119      0.2608
    115  OE1       46.2660   12.1460   22.4010 O.2   119  GLN119     -0.2717
    116  NE2       45.0540   13.9340   21.7500 N.am  119  GLN119     -0.0878
    117  N         44.6010   11.7810   32.6280 N.3   122  LEU122     -0.1245
    118  CA        44.3600   13.0170   33.4000 C.3   122  LEU122      0.1561
    119  C         45.4140   13.1910   34.4880 C.2   122  LEU122      0.2260
    120  O         45.8380   12.2150   35.1160 O.2   122  LEU122     -0.2867
    121  CB        42.9570   13.0320   34.0440 C.3   122  LEU122      0.0270
    122  CG        41.7400   12.6880   33.1630 C.3   122  LEU122      0.0019
    123  CD1       40.4190   12.8270   33.8940 C.3   122  LEU122      0.0001
    124  CD2       41.7430   13.5540   31.9390 C.3   122  LEU122      0.0001
    125  N         40.9990    7.8580   31.7830 N.3   132  ALA132     -0.1231
    126  CA        39.6670    8.3830   31.5010 C.3   132  ALA132      0.1694
    127  C         39.2230    7.9270   30.1230 C.2   132  ALA132      0.2592
    128  O         39.9890    7.2770   29.3960 O.2   132  ALA132     -0.2718
    129  CB        39.6730    9.9120   31.5450 C.3   132  ALA132      0.0304
    130  N         37.9840    8.2820   29.7990 N.am  133  ASN133     -0.1974
    131  CA        37.3510    8.0990   28.4980 C.3   133  ASN133      0.1688
    132  C         37.2620    6.6060   28.0630 C.2   133  ASN133      0.2292
    133  O         37.9860    6.1120   27.2130 O.2   133  ASN133     -0.2864
    134  CB        37.9430    9.0430   27.4170 C.3   133  ASN133      0.1181
    135  CG        37.7290   10.5510   27.7370 C.2   133  ASN133      0.2629
    136  OD1       36.6430   10.9670   28.1490 O.2   133  ASN133     -0.2716
    137  ND2       38.7820   11.3500   27.5810 N.am  133  ASN133     -0.0877
@<TRIPOS>BOND
     1   116   114   am
     2   115   114    2
     3   114   113    1
     4   113   112    1
     5   112   109    1
     6   108   109    1
     7   109   110    1
     8     4     3    2
     9   110   111    2
    10    98    96   ar
    11     3     2    1
    12   133   132    2
    13   134   135    1
    14   134   131    1
    15     9    10    1
    16    99   100    1
    17   137   135   am
    18   135   136    2
    19   100   103    1
    20   100   101    1
    21    96    97   ar
    22    96    95    1
    23   132   131    1
    24    15    13    1
    25    27    26    1
    26    27    28    1
    27    26    25    1
    28    29    28    1
    29   131   130    1
    30   103   104    1
    31     2     1    1
    32     2     5    1
    33     7     5    1
    34    12    11    2
    35    10    13    1
    36    10    11    1
    37   104   105    1
    38   101   102    2
    39    95    92    1
    40    13    14    1
    41   128   127    2
    42     5     6    1
    43    23    22    1
    44    23    24    2
    45   106   105    1
    46   106   107    1
    47   130   127   am
    48    25    22    1
    49    22    21    1
    50   127   126    1
    51    94    93    2
    52    93    92    1
    53    92    91    1
    54     6     8    1
    55    91    84   am
    56   126   129    1
    57   126   125    1
    58   124   122    1
    59    84    83    1
    60    84    85    2
    61    86    83    1
    62    86    87    1
    63   117   118    1
    64    45    47   ar
    65    45    43   ar
    66    89    88    2
    67    47    46   ar
    68    83    82    1
    69    87    88    1
    70   122   123    1
    71   122   121    1
    72   118   121    1
    73   118   119    1
    74    88    90   am
    75    43    42   ar
    76    46    44   ar
    77    77    76    2
    78    82    76   am
    79    35    34    1
    80   119   120    2
    81    20    17    1
    82    18    19    2
    83    18    17    1
    84    42    44   ar
    85    42    41    1
    86    76    75    1
    87    17    16    1
    88    71    70    2
    89    34    36    1
    90    34    31    1
    91    41    38    1
    92    66    64   ar
    93    66    67   ar
    94    70    74   am
    95    70    69    1
    96    64    62   ar
    97    75    74    1
    98    75    78    1
    99    30    31    1
   100    67    65   ar
   101    37    38    1
   102    72    69    1
   103    72    73    1
   104    31    32    1
   105    38    39    1
   106    51    50    2
   107    68    69    1
   108    68    59   am
   109    33    32    2
   110    78    79    1
   111    62    61    1
   112    62    63   ar
   113    39    40    2
   114    39    48   am
   115    65    63   ar
   116    58    59    1
   117    58    61    1
   118    58    57    1
   119    59    60    2
   120    50    57   am
   121    50    49    1
   122    48    49    1
   123    79    80   ar
   124    79    81   ar
   125    49    52    1
   126    53    52    1
   127    53    54    1
   128    54    56   ar
   129    54    55   ar
