@<TRIPOS>MOLECULE
tmp/1unlA00.pdb
 172 162 0 0 0
SMALL
GASTEIGER

@<TRIPOS>ATOM
      1  N         70.1980   26.7110   22.5430 N.3     8  GLU8       -0.1245
      2  CA        70.3700   27.6290   23.6670 C.3     8  GLU8        0.1567
      3  C         69.4090   27.3290   24.8080 C.2     8  GLU8        0.2260
      4  O         68.4350   26.5850   24.6390 O.2     8  GLU8       -0.2867
      5  CB        70.1660   29.0740   23.2130 C.3     8  GLU8        0.0388
      6  CG        68.7730   29.3540   22.6870 C.3     8  GLU8        0.1160
      7  CD        68.7410   30.4160   21.5960 C.2     8  GLU8        0.3649
      8  OE1       69.3460   30.2020   20.5100 O.co2   8  GLU8       -0.2457
      9  OE2       68.0780   31.4560   21.8280 O.co2   8  GLU8       -0.2457
     10  N         66.5880   28.5220   27.2510 N.3    10  ILE10      -0.1231
     11  CA        65.4710   29.4440   27.3090 C.3    10  ILE10       0.1692
     12  C         65.2400   29.9270   28.7310 C.2    10  ILE10       0.2593
     13  O         64.8990   31.1210   28.9610 O.2    10  ILE10      -0.2718
     14  CB        64.1880   28.7450   26.7850 C.3    10  ILE10       0.0266
     15  CG1       64.2450   28.6020   25.2680 C.3    10  ILE10       0.0019
     16  CG2       62.9650   29.5210   27.1450 C.3    10  ILE10       0.0020
     17  CD1       63.2410   27.6140   24.7240 C.3    10  ILE10       0.0001
     18  N         65.4120   29.0040   29.6850 N.am   11  GLY11      -0.1942
     19  CA        65.2540   29.3270   31.1090 C.3    11  GLY11       0.2014
     20  C         64.9870   28.1210   32.0070 C.2    11  GLY11       0.2639
     21  O         65.1500   26.9700   31.5830 O.2    11  GLY11      -0.2714
     22  N         64.5810   28.3840   33.2500 N.am   12  GLU12      -0.1963
     23  CA        64.1580   27.3180   34.1520 C.3    12  GLU12       0.1733
     24  C         62.6670   27.2820   34.2510 C.2    12  GLU12       0.2616
     25  O         62.0170   28.3300   34.3690 O.2    12  GLU12      -0.2715
     26  CB        64.6910   27.5480   35.5530 C.3    12  GLU12       0.0429
     27  CG        66.2020   27.6150   35.6490 C.3    12  GLU12       0.1163
     28  CD        66.8740   26.3200   35.2550 C.2    12  GLU12       0.3649
     29  OE1       67.9240   26.3460   34.5330 O.co2  12  GLU12      -0.2457
     30  OE2       66.3690   25.2690   35.7270 O.co2  12  GLU12      -0.2457
     31  N         62.1000   26.0850   34.2200 N.am   13  GLY13      -0.1955
     32  CA        60.6580   25.9430   34.4420 C.3    13  GLY13       0.1869
     33  C         60.3540   25.6030   35.9040 C.2    13  GLY13       0.2309
     34  O         61.2280   25.6800   36.7800 O.2    13  GLY13      -0.2863
     35  N         64.6430   24.3930   30.4020 N.3    18  VAL18      -0.1245
     36  CA        64.0460   24.5050   29.0650 C.3    18  VAL18       0.1561
     37  C         65.0940   24.9570   28.0280 C.2    18  VAL18       0.2260
     38  O         65.7480   25.9810   28.2160 O.2    18  VAL18      -0.2867
     39  CB        62.8590   25.4590   29.0930 C.3    18  VAL18       0.0252
     40  CG1       62.1680   25.5220   27.7370 C.3    18  VAL18       0.0019
     41  CG2       61.8580   25.0470   30.1720 C.3    18  VAL18       0.0019
     42  N         65.9970   25.4250   23.6460 N.3    20  LYS20      -0.1245
     43  CA        65.6490   25.4500   22.2330 C.3    20  LYS20       0.1561
     44  C         66.5430   24.4540   21.5550 C.2    20  LYS20       0.2260
     45  O         67.7550   24.4810   21.7290 O.2    20  LYS20      -0.2867
     46  CB        65.9050   26.8510   21.6770 C.3    20  LYS20       0.0271
     47  CG        65.5070   27.0710   20.2520 C.3    20  LYS20       0.0035
     48  CD        65.5900   28.5680   19.9150 C.3    20  LYS20       0.0206
     49  CE        65.5560   28.7680   18.4320 C.3    20  LYS20       0.1093
     50  NZ        65.6490   30.2060   18.0520 N.3    20  LYS20      -0.1314
     51  N         61.2440   22.6700   21.4950 N.3    31  ALA31      -0.1245
     52  CA        61.6680   22.9700   22.8510 C.3    31  ALA31       0.1562
     53  C         61.7750   21.6820   23.6810 C.2    31  ALA31       0.2260
     54  O         60.8780   20.8530   23.6660 O.2    31  ALA31      -0.2867
     55  CB        60.7290   23.9270   23.4920 C.3    31  ALA31       0.0290
     56  N         62.2400   20.1540   27.6070 N.3    33  LYS33      -0.1245
     57  CA        62.1970   20.2900   29.0650 C.3    33  LYS33       0.1561
     58  C         62.9560   19.0530   29.6000 C.2    33  LYS33       0.2260
     59  O         62.5620   17.9160   29.3630 O.2    33  LYS33      -0.2867
     60  CB        60.7430   20.2810   29.5170 C.3    33  LYS33       0.0271
     61  CG        60.3240   21.2130   30.5830 C.3    33  LYS33       0.0035
     62  CD        58.7790   21.5270   30.3690 C.3    33  LYS33       0.0206
     63  CE        58.0750   22.0730   31.6350 C.3    33  LYS33       0.1093
     64  NZ        56.6810   22.6610   31.4450 N.3    33  LYS33      -0.1314
     65  N         50.0040   24.2180   24.5760 N.3    64  VAL64      -0.1245
     66  CA        51.3230   23.8140   24.1130 C.3    64  VAL64       0.1561
     67  C         51.3620   22.2850   23.8850 C.2    64  VAL64       0.2260
     68  O         50.8550   21.4860   24.6830 O.2    64  VAL64      -0.2867
     69  CB        52.4710   24.2720   25.0520 C.3    64  VAL64       0.0252
     70  CG1       52.4680   23.4980   26.3280 C.3    64  VAL64       0.0019
     71  CG2       53.8290   24.1270   24.3540 C.3    64  VAL64       0.0019
     72  N         58.5690   19.4020   23.1850 N.3    80  PHE80      -0.1227
     73  CA        57.4300   20.2630   22.9300 C.3    80  PHE80       0.1736
     74  C         57.6510   21.0570   21.6210 C.2    80  PHE80       0.2595
     75  O         58.7840   21.2510   21.1540 O.2    80  PHE80      -0.2718
     76  CB        57.3040   21.2980   24.0620 C.3    80  PHE80       0.0547
     77  CG        56.7790   20.7540   25.3780 C.ar   80  PHE80      -0.0202
     78  CD1       57.6400   20.3490   26.3890 C.ar   80  PHE80      -0.0042
     79  CD2       55.4240   20.7730   25.6420 C.ar   80  PHE80      -0.0042
     80  CE1       57.1200   19.9100   27.6150 C.ar   80  PHE80      -0.0003
     81  CE2       54.9230   20.3300   26.8360 C.ar   80  PHE80      -0.0003
     82  CZ        55.7610   19.9000   27.8300 C.ar   80  PHE80      -0.0000
     83  N         56.5740   21.5510   21.0510 N.am   81  GLU81      -0.1965
     84  CA        56.6590   22.6220   20.0640 C.3    81  GLU81       0.1733
     85  C         57.4310   23.8200   20.6670 C.2    81  GLU81       0.2616
     86  O         57.3460   24.0790   21.8530 O.2    81  GLU81      -0.2715
     87  CB        55.2610   23.0850   19.5960 C.3    81  GLU81       0.0429
     88  CG        54.4200   23.7880   20.6370 C.3    81  GLU81       0.1163
     89  CD        53.0510   24.2010   20.1140 C.2    81  GLU81       0.3649
     90  OE1       52.9970   24.9050   19.0980 O.co2  81  GLU81      -0.2457
     91  OE2       52.0190   23.7860   20.6860 O.co2  81  GLU81      -0.2457
     92  N         58.1850   24.5230   19.8380 N.am   82  PHE82      -0.1960
     93  CA        58.8850   25.7330   20.2680 C.3    82  PHE82       0.1771
     94  C         57.9900   26.9250   20.0480 C.2    82  PHE82       0.2620
     95  O         57.4160   27.0470   18.9830 O.2    82  PHE82      -0.2715
     96  CB        60.1870   25.9270   19.4870 C.3    82  PHE82       0.0574
     97  CG        60.8750   27.2350   19.7650 C.ar   82  PHE82      -0.0200
     98  CD1       60.8050   28.2990   18.8530 C.ar   82  PHE82      -0.0042
     99  CD2       61.6040   27.4130   20.9330 C.ar   82  PHE82      -0.0042
    100  CE1       61.4670   29.5150   19.1100 C.ar   82  PHE82      -0.0003
    101  CE2       62.2450   28.6340   21.2070 C.ar   82  PHE82      -0.0003
    102  CZ        62.1900   29.6780   20.2840 C.ar   82  PHE82      -0.0000
    103  N         57.9070   27.8060   21.0400 N.am   83  CYS83      -0.1954
    104  CA        57.2640   29.1290   20.9040 C.3    83  CYS83       0.1843
    105  C         58.2320   30.2830   21.1640 C.2    83  CYS83       0.2625
    106  O         59.1340   30.1660   21.9470 O.2    83  CYS83      -0.2714
    107  CB        56.1130   29.2650   21.8450 C.3    83  CYS83       0.0997
    108  SG        54.8930   27.9740   21.7140 S.3    83  CYS83      -0.0797
    109  N         58.0390   31.4150   20.5000 N.am   84  ASP84      -0.1957
    110  CA        59.0970   32.4460   20.4220 C.3    84  ASP84       0.1840
    111  C         59.2830   33.1860   21.7320 C.2    84  ASP84       0.2622
    112  O         60.3970   33.4610   22.1400 O.2    84  ASP84      -0.2715
    113  CB        58.8070   33.4280   19.2780 C.3    84  ASP84       0.1450
    114  CG        58.6430   32.7140   17.9480 C.2    84  ASP84       0.3671
    115  OD1       59.5800   31.9800   17.5500 O.co2  84  ASP84      -0.2456
    116  OD2       57.5870   32.7740   17.2710 O.co2  84  ASP84      -0.2456
    117  N         58.1800   33.4670   22.3990 N.am   85  GLN85      -0.1963
    118  CA        58.1990   34.2340   23.6410 C.3    85  GLN85       0.1733
    119  C         57.0160   33.9790   24.5460 C.2    85  GLN85       0.2616
    120  O         55.9970   33.4390   24.1420 O.2    85  GLN85      -0.2715
    121  CB        58.3570   35.7460   23.3900 C.3    85  GLN85       0.0408
    122  CG        57.3020   36.3750   22.5950 C.3    85  GLN85       0.0908
    123  CD        57.6480   37.8070   22.1780 C.2    85  GLN85       0.2608
    124  OE1       58.3170   38.5640   22.9170 O.2    85  GLN85      -0.2717
    125  NE2       57.2170   38.1750   20.9710 N.am   85  GLN85      -0.0878
    126  N         57.1640   34.3360   25.8040 N.am   86  ASP86      -0.1971
    127  CA        56.0070   34.3490   26.6810 C.3    86  ASP86       0.1709
    128  C         55.3950   35.7320   26.7620 C.2    86  ASP86       0.2293
    129  O         56.0060   36.7210   26.3440 O.2    86  ASP86      -0.2864
    130  CB        56.3230   33.7570   28.0550 C.3    86  ASP86       0.1436
    131  CG        57.2910   34.5570   28.8590 C.2    86  ASP86       0.3671
    132  OD1       57.1670   35.7810   29.0450 O.co2  86  ASP86      -0.2456
    133  OD2       58.2190   33.9910   29.4250 O.co2  86  ASP86      -0.2456
    134  N         57.4360   38.5690   28.5660 N.3    89  LYS89      -0.1245
    135  CA        58.4770   39.1450   27.7060 C.3    89  LYS89       0.1561
    136  C         57.8950   39.9940   26.5570 C.2    89  LYS89       0.2260
    137  O         58.5090   40.9880   26.1440 O.2    89  LYS89      -0.2867
    138  CB        59.3340   38.0320   27.1330 C.3    89  LYS89       0.0271
    139  CG        60.6600   38.5020   26.5520 C.3    89  LYS89       0.0035
    140  CD        61.3970   37.3750   25.8700 C.3    89  LYS89       0.0206
    141  CE        62.6200   37.9080   25.0840 C.3    89  LYS89       0.1093
    142  NZ        63.6820   36.8990   24.9970 N.3    89  LYS89      -0.1314
    143  N         53.5010   34.5160   32.1910 N.3   130  GLN130     -0.1245
    144  CA        54.6690   33.7140   31.8740 C.3   130  GLN130      0.1566
    145  C         54.2890   32.2900   31.4340 C.2   130  GLN130      0.2260
    146  O         55.0830   31.6290   30.7840 O.2   130  GLN130     -0.2867
    147  CB        55.6770   33.6460   33.0300 C.3   130  GLN130      0.0367
    148  CG        55.0160   33.5910   34.4320 C.3   130  GLN130      0.0905
    149  CD        54.9540   34.9680   35.1790 C.2   130  GLN130      0.2608
    150  OE1       53.9180   35.7030   35.1640 O.2   130  GLN130     -0.2717
    151  NE2       56.0540   35.2680   35.8810 N.am  130  GLN130     -0.0878
    152  N         52.3950   31.2750   26.1020 N.3   133  LEU133     -0.1245
    153  CA        53.3780   31.3670   25.0260 C.3   133  LEU133      0.1561
    154  C         52.8100   31.9510   23.7650 C.2   133  LEU133      0.2260
    155  O         51.6630   31.6870   23.4070 O.2   133  LEU133     -0.2867
    156  CB        54.0350   30.0140   24.7600 C.3   133  LEU133      0.0270
    157  CG        54.5900   29.3510   26.0150 C.3   133  LEU133      0.0019
    158  CD1       55.2230   27.9890   25.6930 C.3   133  LEU133      0.0001
    159  CD2       55.5720   30.2360   26.6850 C.3   133  LEU133      0.0001
    160  N         50.6340   27.0430   28.5460 N.3   143  ALA143     -0.1231
    161  CA        51.7010   26.1000   28.8710 C.3   143  ALA143      0.1694
    162  C         51.8190   25.8910   30.3460 C.2   143  ALA143      0.2592
    163  O         51.1510   26.5430   31.1590 O.2   143  ALA143     -0.2718
    164  CB        53.0610   26.5600   28.2910 C.3   143  ALA143      0.0304
    165  N         52.6760   24.9390   30.6740 N.am  144  ASN144     -0.1974
    166  CA        53.1430   24.6600   32.0280 C.3   144  ASN144      0.1688
    167  C         52.0160   24.1390   32.9010 C.2   144  ASN144      0.2292
    168  O         51.4300   24.8620   33.6890 O.2   144  ASN144     -0.2864
    169  CB        53.8980   25.8480   32.6250 C.3   144  ASN144      0.1181
    170  CG        55.1010   26.2650   31.7510 C.2   144  ASN144      0.2629
    171  OD1       55.7690   25.4100   31.2120 O.2   144  ASN144     -0.2716
    172  ND2       55.3620   27.5750   31.6100 N.am  144  ASN144     -0.0877
@<TRIPOS>BOND
     1   116   114   ar
     2   115   114   ar
     3   114   113    1
     4    50    49    1
     5    49    48    1
     6    98   100   ar
     7    98    97   ar
     8    95    94    2
     9    90    89   ar
    10   100   102   ar
    11   113   110    1
    12    96    97    1
    13    96    93    1
    14    87    84    1
    15    87    88    1
    16    97    99   ar
    17    92    93    1
    18    92    85   am
    19    48    47    1
    20    94    93    1
    21    94   103   am
    22    84    85    1
    23    84    83    1
    24    89    88    1
    25    89    91   ar
    26    47    46    1
    27   102   101   ar
    28   110   109    1
    29   110   111    1
    30   109   105   am
    31     8     7   ar
    32    85    86    2
    33   104   103    1
    34   104   105    1
    35   104   107    1
    36    99   101   ar
    37   125   123   am
    38    83    74   am
    39    75    74    2
    40   105   106    2
    41    51    52    1
    42    44    45    2
    43    44    43    1
    44     7     9   ar
    45     7     6    1
    46    74    73    1
    47    46    43    1
    48   108   107    1
    49   111   112    2
    50   111   117   am
    51   123   122    1
    52   123   124    2
    53    43    42    1
    54   117   118    1
    55     1     2    1
    56   122   121    1
    57     6     5    1
    58    52    55    1
    59    52    53    1
    60    73    72    1
    61    73    76    1
    62     5     2    1
    63   121   118    1
    64   155   154    2
    65   118   119    1
    66    54    53    2
    67     2     3    1
    68   154   153    1
    69    67    66    1
    70    67    68    2
    71    76    77    1
    72    66    65    1
    73    66    69    1
    74   120   119    2
    75    71    69    1
    76   119   126   am
    77     4     3    2
    78    17    15    1
    79   156   153    1
    80   156   157    1
    81   142   141    1
    82   153   152    1
    83    69    70    1
    84   141   140    1
    85    15    14    1
    86    77    79   ar
    87    77    78   ar
    88    79    81   ar
    89   158   157    1
    90   126   127    1
    91   140   139    1
    92   157   159    1
    93   137   136    2
    94   129   128    2
    95    78    80   ar
    96   139   138    1
    97   136   135    1
    98   127   128    1
    99   127   130    1
   100    14    16    1
   101    14    11    1
   102    81    82   ar
   103   138   135    1
   104    10    11    1
   105    11    12    1
   106    56    57    1
   107    80    82   ar
   108   135   134    1
   109    40    39    1
   110    37    38    2
   111    37    36    1
   112   130   131    1
   113   164   161    1
   114   160   161    1
   115    12    13    2
   116    12    18   am
   117   131   132   ar
   118   131   133   ar
   119   161   162    1
   120    57    60    1
   121    57    58    1
   122    36    39    1
   123    36    35    1
   124    39    41    1
   125    59    58    2
   126    60    61    1
   127    18    19    1
   128   162   165   am
   129   162   163    2
   130    62    61    1
   131    62    63    1
   132   165   166    1
   133   146   145    2
   134    19    20    1
   135   171   170    2
   136   145   144    1
   137    64    63    1
   138    21    20    2
   139   172   170   am
   140   170   169    1
   141   144   143    1
   142   144   147    1
   143    20    22   am
   144   166   169    1
   145   166   167    1
   146   167   168    2
   147   147   148    1
   148    22    23    1
   149    23    24    1
   150    23    26    1
   151    31    24   am
   152    31    32    1
   153    24    25    2
   154   148   149    1
   155    32    33    1
   156    29    28   ar
   157   150   149    2
   158   149   151   am
   159    28    27    1
   160    28    30   ar
   161    26    27    1
   162    33    34    2
