@<TRIPOS>MOLECULE
tmp/1unqA00.pdb
 130 126 0 0 0
SMALL
GASTEIGER

@<TRIPOS>ATOM
      1  N         15.8900   14.1640   17.3410 N.3    15  LYS15      -0.1231
      2  CA        16.7260   15.3640   17.1970 C.3    15  LYS15       0.1693
      3  C         16.4370   16.2440   18.4100 C.2    15  LYS15       0.2592
      4  O         15.2640   16.5330   18.7020 O.2    15  LYS15      -0.2718
      5  CB        16.4020   16.0830   15.8910 C.3    15  LYS15       0.0285
      6  CG        17.1720   17.3340   15.6060 C.3    15  LYS15       0.0035
      7  CD        16.8710   17.8500   14.2000 C.3    15  LYS15       0.0206
      8  CE        17.5000   19.1640   13.8020 C.3    15  LYS15       0.1093
      9  NZ        16.7960   20.3040   14.4810 N.3    15  LYS15      -0.1314
     10  N         17.4550   16.6460   19.1290 N.am   16  ARG16      -0.1966
     11  CA        17.2630   17.3990   20.3560 C.3    16  ARG16       0.1729
     12  C         17.0660   18.8840   20.1040 C.2    16  ARG16       0.2617
     13  O         17.7980   19.5000   19.3260 O.2    16  ARG16      -0.2715
     14  CB        18.4600   17.2110   21.2860 C.3    16  ARG16       0.0348
     15  CG        18.1610   17.5480   22.7190 C.3    16  ARG16       0.0492
     16  CD        19.0630   16.9090   23.7060 C.3    16  ARG16       0.2205
     17  NE        18.7580   17.0970   25.1120 N.pl3  16  ARG16      -0.0865
     18  CZ        19.5950   17.5530   26.0450 C.cat  16  ARG16       0.5346
     19  NH1       20.8490   17.9340   25.8380 N.pl3  16  ARG16       0.1354
     20  NH2       19.2170   17.6760   27.3140 N.pl3  16  ARG16       0.1354
     21  N         16.0560   19.4830   20.7520 N.am   17  GLY17      -0.1940
     22  CA        15.8560   20.9160   20.5810 C.3    17  GLY17       0.2014
     23  C         17.0450   21.7080   21.0570 C.2    17  GLY17       0.2639
     24  O         17.7790   21.3090   21.9720 O.2    17  GLY17      -0.2714
     25  N         17.2210   22.8930   20.4580 N.am   18  GLU18      -0.1963
     26  CA        18.3240   23.7530   20.8230 C.3    18  GLU18       0.1733
     27  C         18.1130   24.5280   22.1290 C.2    18  GLU18       0.2616
     28  O         19.0740   24.8380   22.8340 O.2    18  GLU18      -0.2715
     29  CB        18.6260   24.7740   19.7140 C.3    18  GLU18       0.0429
     30  CG        19.1890   24.1380   18.4630 C.3    18  GLU18       0.1163
     31  CD        20.4450   23.3710   18.7810 C.2    18  GLU18       0.3649
     32  OE1       21.3580   23.9360   19.3760 O.co2  18  GLU18      -0.2457
     33  OE2       20.4540   22.2060   18.3440 O.co2  18  GLU18      -0.2457
     34  N         16.8500   24.8340   22.4330 N.am   19  TYR19      -0.1960
     35  CA        16.5210   25.6400   23.6100 C.3    19  TYR19       0.1771
     36  C         15.5990   24.8910   24.5490 C.2    19  TYR19       0.2619
     37  O         15.8390   24.8720   25.7710 O.2    19  TYR19      -0.2715
     38  CB        15.8690   26.9800   23.1840 C.3    19  TYR19       0.0574
     39  CG        16.8240   27.8940   22.4500 C.ar   19  TYR19      -0.0198
     40  CD1       17.6280   28.7800   23.1450 C.ar   19  TYR19      -0.0009
     41  CD2       16.9220   27.8450   21.0530 C.ar   19  TYR19      -0.0009
     42  CE1       18.5020   29.6200   22.4640 C.ar   19  TYR19       0.0417
     43  CE2       17.8040   28.6860   20.3840 C.ar   19  TYR19       0.0417
     44  CZ        18.5980   29.5530   21.0890 C.ar   19  TYR19       0.1957
     45  OH        19.4640   30.3950   20.4500 O.3    19  TYR19      -0.2866
     46  N         14.5830   24.2780   24.0040 N.am   20  ILE20      -0.1977
     47  CA        13.6580   23.3880   24.7360 C.3    20  ILE20       0.1596
     48  C         14.2010   22.0160   24.4030 C.2    20  ILE20       0.2287
     49  O         13.9720   21.4760   23.3190 O.2    20  ILE20      -0.2864
     50  CB        12.2160   23.6070   24.3240 C.3    20  ILE20       0.0276
     51  CG1       11.8150   25.0650   24.5970 C.3    20  ILE20       0.0022
     52  CG2       11.3210   22.6110   25.0140 C.3    20  ILE20       0.0022
     53  CD1       10.4200   25.4310   24.0970 C.3    20  ILE20       0.0001
     54  N         12.9210   15.1420   19.6610 N.3    24  ARG24      -0.1245
     55  CA        11.8090   15.2720   18.7340 C.3    24  ARG24       0.1563
     56  C         11.9810   14.3160   17.5900 C.2    24  ARG24       0.2260
     57  O         13.0700   14.2660   16.9780 O.2    24  ARG24      -0.2867
     58  CB        11.7340   16.7060   18.2100 C.3    24  ARG24       0.0307
     59  CG        11.7410   17.6840   19.3680 C.3    24  ARG24       0.0489
     60  CD        11.7210   19.1180   18.9490 C.3    24  ARG24       0.2205
     61  NE        11.9970   19.9400   20.1570 N.pl3  24  ARG24      -0.0865
     62  CZ        12.1290   21.2390   20.0520 C.cat  24  ARG24       0.5346
     63  NH1       12.0670   21.8490   18.8700 N.pl3  24  ARG24       0.1354
     64  NH2       12.3140   21.9920   21.1080 N.pl3  24  ARG24       0.1354
     65  N         12.1440   12.8940   13.9790 N.3    26  ARG26      -0.1245
     66  CA        12.3250   13.4940   12.6740 C.3    26  ARG26       0.1563
     67  C         12.7150   12.4360   11.6950 C.2    26  ARG26       0.2260
     68  O         13.4950   11.5210   12.0520 O.2    26  ARG26      -0.2867
     69  CB        13.4450   14.5430   12.7070 C.3    26  ARG26       0.0307
     70  CG        13.2400   15.7140   13.6370 C.3    26  ARG26       0.0489
     71  CD        12.3600   16.7840   13.1090 C.3    26  ARG26       0.2205
     72  NE        12.0890   17.9060   14.0400 N.pl3  26  ARG26      -0.0865
     73  CZ        10.9770   17.9950   14.7780 C.cat  26  ARG26       0.5346
     74  NH1       10.0570   17.0270   14.7870 N.pl3  26  ARG26       0.1354
     75  NH2       10.7820   19.0570   15.5630 N.pl3  26  ARG26       0.1354
     76  N         11.6700   20.3480    6.8100 N.3    53  LEU53      -0.1231
     77  CA        11.7340   21.1320    8.0410 C.3    53  LEU53       0.1693
     78  C         13.1490   21.6080    8.3450 C.2    53  LEU53       0.2592
     79  O         13.3970   22.7660    8.7210 O.2    53  LEU53      -0.2718
     80  CB        11.2140   20.3290    9.2160 C.3    53  LEU53       0.0284
     81  CG        11.1760   21.0120   10.5710 C.3    53  LEU53       0.0019
     82  CD1       10.2160   22.2150   10.6170 C.3    53  LEU53       0.0001
     83  CD2       10.7220   20.0270   11.6140 C.3    53  LEU53       0.0001
     84  N         14.1310   20.7040    8.2340 N.am   54  ASN54      -0.1960
     85  CA        15.5040   20.9080    8.5640 C.3    54  ASN54       0.1819
     86  C         16.3610   20.7410    7.2980 C.2    54  ASN54       0.2621
     87  O         16.0520   19.8600    6.4780 O.2    54  ASN54      -0.2715
     88  CB        16.0340   19.8710    9.5930 C.3    54  ASN54       0.1195
     89  CG        15.0790   19.7510   10.7540 C.2    54  ASN54       0.2630
     90  OD1       14.9590   20.7140   11.5770 O.2    54  ASN54      -0.2716
     91  ND2       14.4800   18.6580   10.8960 N.am   54  ASN54      -0.0877
     92  N         17.4070   21.5070    7.1890 N.am   55  ASN55      -0.1958
     93  CA        18.2790   21.3880    6.0170 C.3    55  ASN55       0.1819
     94  C         19.6880   21.8000    6.3980 C.2    55  ASN55       0.2621
     95  O         19.8890   22.9470    6.7640 O.2    55  ASN55      -0.2715
     96  CB        17.7610   22.2350    4.8760 C.3    55  ASN55       0.1195
     97  CG        18.4430   21.9640    3.5630 C.2    55  ASN55       0.2630
     98  OD1       19.4500   21.2710    3.5160 O.2    55  ASN55      -0.2716
     99  ND2       17.8690   22.5600    2.5490 N.am   55  ASN55      -0.0877
    100  N         20.5910   20.8540    6.3300 N.am   56  PHE56      -0.1974
    101  CA        21.9860   21.0480    6.6570 C.3    56  PHE56       0.1639
    102  C         22.8640   20.6190    5.4730 C.2    56  PHE56       0.2290
    103  O         22.4050   19.8500    4.5840 O.2    56  PHE56      -0.2864
    104  CB        22.3870   20.2770    7.8950 C.3    56  PHE56       0.0560
    105  CG        21.4150   20.5090    9.0440 C.ar   56  PHE56      -0.0200
    106  CD1       21.2860   21.7420    9.6390 C.ar   56  PHE56      -0.0042
    107  CD2       20.6070   19.4820    9.5280 C.ar   56  PHE56      -0.0042
    108  CE1       20.3800   21.9830   10.6240 C.ar   56  PHE56      -0.0003
    109  CE2       19.7030   19.7280   10.5370 C.ar   56  PHE56      -0.0003
    110  CZ        19.5850   20.9690   11.1210 C.ar   56  PHE56      -0.0000
    111  N         26.5940   26.2590    8.4510 N.3    80  GLN80      -0.1245
    112  CA        25.3170   26.6790    7.9100 C.3    80  GLN80       0.1566
    113  C         25.5010   28.0950    7.3620 C.2    80  GLN80       0.2260
    114  O         25.5140   29.0540    8.1300 O.2    80  GLN80      -0.2867
    115  CB        24.2210   26.6510    8.9530 C.3    80  GLN80       0.0367
    116  CG        22.8240   26.8360    8.4560 C.3    80  GLN80       0.0905
    117  CD        22.2550   25.6020    7.8080 C.2    80  GLN80       0.2608
    118  OE1       22.9290   24.8260    7.1350 O.2    80  GLN80      -0.2717
    119  NE2       20.9620   25.3300    7.9290 N.am   80  GLN80      -0.0878
    120  N         24.2270   20.1650   15.8700 N.3    87  ARG87      -0.1245
    121  CA        22.9220   19.5380   16.0300 C.3    87  ARG87       0.1563
    122  C         23.1150   18.1260   16.5940 C.2    87  ARG87       0.2260
    123  O         24.0620   17.4450   16.2370 O.2    87  ARG87      -0.2867
    124  CB        22.1490   19.5080   14.7280 C.3    87  ARG87       0.0307
    125  CG        21.7460   20.9070   14.2250 C.3    87  ARG87       0.0489
    126  CD        20.6820   21.5530   15.0630 C.3    87  ARG87       0.2205
    127  NE        20.2090   22.8370   14.5710 N.pl3  87  ARG87      -0.0865
    128  CZ        20.7180   24.0110   14.8950 C.cat  87  ARG87       0.5346
    129  NH1       21.8030   24.1270   15.6710 N.pl3  87  ARG87       0.1354
    130  NH2       20.1890   25.1220   14.4150 N.pl3  87  ARG87       0.1354
@<TRIPOS>BOND
     1    99    97   am
     2    98    97    2
     3    97    96    1
     4   103   102    2
     5    96    93    1
     6   102   101    1
     7    93    94    1
     8    93    92    1
     9   100    94   am
    10   100   101    1
    11    94    95    2
    12    87    86    2
    13   101   104    1
    14    76    77    1
    15   118   117    2
    16    92    86   am
    17    86    85    1
    18   113   112    1
    19   113   114    2
    20   117   119   am
    21   117   116    1
    22   104   105    1
    23   112   111    1
    24   112   115    1
    25    77    78    1
    26    77    80    1
    27    84    78   am
    28    84    85    1
    29    78    79    2
    30   116   115    1
    31    85    88    1
    32   105   107   ar
    33   105   106   ar
    34    80    81    1
    35   107   109   ar
    36    88    89    1
    37   106   108   ar
    38   109   110   ar
    39    81    82    1
    40    81    83    1
    41   108   110   ar
    42    89    91   am
    43    89    90    2
    44    67    68    2
    45    67    66    1
    46    66    69    1
    47    66    65    1
    48    69    70    1
    49    71    70    1
    50    71    72    1
    51     8     7    1
    52     8     9    1
    53    72    73    2
    54     7     6    1
    55   125   124    1
    56   125   126    1
    57   130   128    1
    58   127   128    2
    59   127   126    1
    60   124   121    1
    61    73    74    1
    62    73    75    1
    63   128   129    1
    64     6     5    1
    65   120   121    1
    66     5     2    1
    67   121   122    1
    68   123   122    2
    69    57    56    2
    70     2     1    1
    71     2     3    1
    72    56    55    1
    73    58    55    1
    74    58    59    1
    75    33    31   ar
    76     3     4    2
    77     3    10   am
    78    30    31    1
    79    30    29    1
    80    55    54    1
    81    31    32   ar
    82    63    62    1
    83    60    59    1
    84    60    61    1
    85    10    11    1
    86    13    12    2
    87    29    26    1
    88    62    61    2
    89    62    64    1
    90    12    11    1
    91    12    21   am
    92    11    14    1
    93    43    41   ar
    94    43    44   ar
    95    45    44    1
    96    25    26    1
    97    25    23   am
    98    22    21    1
    99    22    23    1
   100    26    27    1
   101    41    39   ar
   102    23    24    2
   103    44    42   ar
   104    14    15    1
   105    27    34   am
   106    27    28    2
   107    34    35    1
   108    39    40   ar
   109    39    38    1
   110    42    40   ar
   111    15    16    1
   112    38    35    1
   113    49    48    2
   114    35    36    1
   115    16    17    1
   116    46    36   am
   117    46    47    1
   118    53    51    1
   119    50    51    1
   120    50    47    1
   121    50    52    1
   122    48    47    1
   123    36    37    2
   124    17    18    2
   125    19    18    1
   126    18    20    1
