@<TRIPOS>MOLECULE
tmp/1uo9A00.pdb
 124 114 0 0 0
SMALL
GASTEIGER

@<TRIPOS>ATOM
      1  N         -0.0820   21.4950   57.2310 N.3   146  ARG146     -0.1245
      2  CA        -0.7220   20.6870   58.2640 C.3   146  ARG146      0.1563
      3  C         -0.5980   21.3440   59.6640 C.2   146  ARG146      0.2260
      4  O          0.4930   21.8320   60.0280 O.2   146  ARG146     -0.2867
      5  CB        -0.0320   19.3310   58.2650 C.3   146  ARG146      0.0307
      6  CG        -0.1240   18.5790   56.9370 C.3   146  ARG146      0.0489
      7  CD         0.7080   17.3120   57.2510 C.3   146  ARG146      0.2205
      8  NE         0.8760   16.6780   55.9660 N.pl3 146  ARG146     -0.0865
      9  CZ         1.9520   15.9440   55.6540 C.cat 146  ARG146      0.5346
     10  NH1        2.9520   15.7520   56.4850 N.pl3 146  ARG146      0.1354
     11  NH2        1.9240   15.3790   54.4280 N.pl3 146  ARG146      0.1354
     12  N         -0.8130   20.4990   63.6180 N.3   148  PHE148     -0.1241
     13  CA        -0.8390   19.3650   64.4960 C.3   148  PHE148      0.1605
     14  C         -1.1820   19.8520   65.9110 C.2   148  PHE148      0.2264
     15  O         -0.4930   20.7420   66.4180 O.2   148  PHE148     -0.2867
     16  CB         0.5380   18.7320   64.5790 C.3   148  PHE148      0.0534
     17  CG         1.0360   18.1930   63.2630 C.ar  148  PHE148     -0.0203
     18  CD1        1.6680   19.0050   62.3390 C.ar  148  PHE148     -0.0042
     19  CD2        0.8720   16.8660   62.9660 C.ar  148  PHE148     -0.0042
     20  CE1        2.1010   18.4870   61.1340 C.ar  148  PHE148     -0.0003
     21  CE2        1.3040   16.3590   61.7680 C.ar  148  PHE148     -0.0003
     22  CZ         1.9080   17.1690   60.8620 C.ar  148  PHE148     -0.0000
     23  N          4.6980   10.7870   62.9580 N.3   153  MET153     -0.1245
     24  CA         4.7210   10.3890   61.5400 C.3   153  MET153      0.1570
     25  C          5.7980    9.2880   61.3610 C.2   153  MET153      0.2261
     26  O          6.9660    9.4450   61.8040 O.2   153  MET153     -0.2867
     27  CB         4.9150   11.5780   60.5690 C.3   153  MET153      0.0387
     28  CG         5.1750   11.2150   59.0560 C.3   153  MET153      0.0595
     29  SD         5.2270   12.5590   58.0520 S.3   153  MET153     -0.1393
     30  CE         4.4010   11.9580   56.4990 C.3   153  MET153      0.0692
     31  N          9.8730    7.3330   56.5490 N.3   156  HIS156     -0.1241
     32  CA         9.6750    7.1290   55.1280 C.3   156  HIS156      0.1621
     33  C         10.6570    7.9790   54.4240 C.2   156  HIS156      0.2264
     34  O         11.3120    8.8330   54.9990 O.2   156  HIS156     -0.2867
     35  CB         8.2540    7.6260   54.7470 C.3   156  HIS156      0.0745
     36  CG         8.0740    9.0780   54.9350 C.ar  156  HIS156      0.0817
     37  ND1        7.7970    9.6380   56.1760 N.ar  156  HIS156     -0.2268
     38  CD2        8.2870   10.1000   54.0940 C.ar  156  HIS156      0.1154
     39  CE1        7.8060   10.9620   56.0560 C.ar  156  HIS156      0.1986
     40  NE2        7.9810   11.2590   54.7700 N.ar  156  HIS156     -0.2212
     41  N         10.6700   10.4280   50.7130 N.3   158  ASP158     -0.1239
     42  CA         9.7550   11.0540   49.7420 C.3   158  ASP158      0.1674
     43  C         10.0620   10.5850   48.3200 C.2   158  ASP158      0.2266
     44  O         11.1430   10.2590   47.9950 O.2   158  ASP158     -0.2867
     45  CB         9.9090   12.5780   49.7860 C.3   158  ASP158      0.1410
     46  CG         9.3520   13.2340   51.0140 C.2   158  ASP158      0.3668
     47  OD1        8.9600   12.5830   52.0780 O.co2 158  ASP158     -0.2456
     48  OD2        9.2590   14.5080   50.9800 O.co2 158  ASP158     -0.2456
     49  N         10.2260   22.2140   53.0290 N.3   165  ILE165     -0.1245
     50  CA         9.5020   22.2120   54.2730 C.3   165  ILE165      0.1561
     51  C          9.7670   23.4500   55.0920 C.2   165  ILE165      0.2260
     52  O         10.9540   23.7880   55.4040 O.2   165  ILE165     -0.2867
     53  CB         9.8820   21.0110   55.1260 C.3   165  ILE165      0.0252
     54  CG1        9.5250   19.7590   54.3620 C.3   165  ILE165      0.0019
     55  CG2        9.1510   21.0090   56.4250 C.3   165  ILE165      0.0019
     56  CD1        9.7210   18.4710   55.1040 C.3   165  ILE165      0.0001
     57  N         10.7780   17.0930   63.8330 N.3   177  LEU177     -0.1245
     58  CA        11.2390   16.5010   62.5670 C.3   177  LEU177      0.1561
     59  C         12.6830   15.9950   62.7130 C.2   177  LEU177      0.2260
     60  O         13.5290   16.7400   63.1780 O.2   177  LEU177     -0.2867
     61  CB        11.1210   17.5220   61.4430 C.3   177  LEU177      0.0270
     62  CG        11.4030   17.1120   59.9730 C.3   177  LEU177      0.0019
     63  CD1       10.4940   15.8830   59.5300 C.3   177  LEU177      0.0001
     64  CD2       11.1680   18.3220   59.0790 C.3   177  LEU177      0.0001
     65  N         13.1630    9.9960   57.0150 N.3   216  HIS216     -0.1241
     66  CA        12.8410   10.9400   58.0380 C.3   216  HIS216      0.1621
     67  C         11.5290   10.5810   58.6830 C.2   216  HIS216      0.2264
     68  O         10.7330    9.7720   58.1450 O.2   216  HIS216     -0.2867
     69  CB        12.8180   12.3850   57.4290 C.3   216  HIS216      0.0745
     70  CG        11.9500   12.5700   56.2060 C.ar  216  HIS216      0.0817
     71  ND1       12.3710   12.2280   54.9340 N.ar  216  HIS216     -0.2268
     72  CD2       10.6750   13.0030   56.0800 C.ar  216  HIS216      0.1154
     73  CE1       11.3970   12.5020   54.0810 C.ar  216  HIS216      0.1986
     74  NE2       10.3740   12.9780   54.7380 N.ar  216  HIS216     -0.2212
     75  N          8.5780   12.0790   62.1300 N.3   218  VAL218     -0.1245
     76  CA         8.1960   13.1180   63.0890 C.3   218  VAL218      0.1561
     77  C          7.9880   12.4800   64.4780 C.2   218  VAL218      0.2260
     78  O          7.1000   11.6540   64.6780 O.2   218  VAL218     -0.2867
     79  CB         6.9720   13.8660   62.6660 C.3   218  VAL218      0.0252
     80  CG1        6.7240   15.0370   63.6690 C.3   218  VAL218      0.0019
     81  CG2        7.1540   14.3560   61.2720 C.3   218  VAL218      0.0019
     82  N          2.3180   22.0920   66.5390 N.3   231  ARG231     -0.1245
     83  CA         3.1750   22.6700   65.5330 C.3   231  ARG231      0.1563
     84  C          2.4710   22.6630   64.1800 C.2   231  ARG231      0.2260
     85  O          1.3880   22.0830   64.0490 O.2   231  ARG231     -0.2867
     86  CB         4.4360   21.8390   65.3710 C.3   231  ARG231      0.0307
     87  CG         4.1600   20.4090   64.9560 C.3   231  ARG231      0.0489
     88  CD         5.3950   19.5110   64.8480 C.3   231  ARG231      0.2205
     89  NE         6.3700   19.9230   63.8270 N.pl3 231  ARG231     -0.0865
     90  CZ         6.4130   19.3640   62.5990 C.cat 231  ARG231      0.5346
     91  NH1        5.5180   18.4620   62.2890 N.pl3 231  ARG231      0.1354
     92  NH2        7.3140   19.7170   61.6780 N.pl3 231  ARG231      0.1354
     93  N          3.4260   22.4990   59.6640 N.3   233  SER233     -0.1217
     94  CA         4.4370   22.3820   58.6650 C.3   233  SER233      0.1889
     95  C          3.8190   22.6650   57.3180 C.2   233  SER233      0.2288
     96  O          2.6480   22.3020   57.0690 O.2   233  SER233     -0.2866
     97  CB         5.0080   20.9940   58.6560 C.3   233  SER233      0.2089
     98  OG         6.2610   21.0450   58.0260 O.3   233  SER233     -0.2183
     99  N          4.5620   21.7490   53.5490 N.3   235  VAL235     -0.1245
    100  CA         5.3170   20.7600   52.8030 C.3   235  VAL235      0.1561
    101  C          5.0420   20.8760   51.3100 C.2   235  VAL235      0.2260
    102  O          3.8900   20.6610   50.8930 O.2   235  VAL235     -0.2867
    103  CB         4.9750   19.3650   53.2870 C.3   235  VAL235      0.0252
    104  CG1        5.8140   18.3040   52.5540 C.3   235  VAL235      0.0019
    105  CG2        5.1890   19.2610   54.8370 C.3   235  VAL235      0.0019
    106  N          5.8160   19.4390   47.6980 N.3   237  PHE237     -0.1241
    107  CA         6.3260   18.3400   46.9050 C.3   237  PHE237      0.1605
    108  C          6.5060   18.7730   45.4630 C.2   237  PHE237      0.2264
    109  O          5.4670   19.1200   44.8570 O.2   237  PHE237     -0.2867
    110  CB         5.4130   17.1440   46.9210 C.3   237  PHE237      0.0534
    111  CG         5.1150   16.5300   48.2700 C.ar  237  PHE237     -0.0203
    112  CD1        3.8860   16.6220   48.8270 C.ar  237  PHE237     -0.0042
    113  CD2        6.0370   15.8270   48.9200 C.ar  237  PHE237     -0.0042
    114  CE1        3.6120   16.0210   50.0580 C.ar  237  PHE237     -0.0003
    115  CE2        5.7280   15.1920   50.1130 C.ar  237  PHE237     -0.0003
    116  CZ         4.4700   15.3040   50.6410 C.ar  237  PHE237     -0.0000
    117  N          5.1220    9.3180   49.3390 N.3   278  ILE278     -0.1245
    118  CA         6.0840    8.7670   50.2560 C.3   278  ILE278      0.1561
    119  C          6.1070    7.2550   50.1940 C.2   278  ILE278      0.2260
    120  O          5.1270    6.6020   49.7460 O.2   278  ILE278     -0.2867
    121  CB         5.7340    9.2630   51.7190 C.3   278  ILE278      0.0252
    122  CG1        4.4040    8.6990   52.2170 C.3   278  ILE278      0.0019
    123  CG2        5.6840   10.8010   51.8150 C.3   278  ILE278      0.0019
    124  CD1        4.0740    8.9200   53.7090 C.3   278  ILE278      0.0001
@<TRIPOS>BOND
     1   109   108    2
     2   108   107    1
     3   107   110    1
     4   107   106    1
     5   110   111    1
     6    44    43    2
     7   111   112   ar
     8   111   113   ar
     9    43    42    1
    10   112   114   ar
    11   113   115   ar
    12   117   118    1
    13    42    45    1
    14    42    41    1
    15   120   119    2
    16    45    46    1
    17   114   116   ar
    18   115   116   ar
    19   119   118    1
    20   118   121    1
    21   102   101    2
    22    48    46   ar
    23    46    47   ar
    24   101   100    1
    25   121   123    1
    26   121   122    1
    27   122   124    1
    28   104   103    1
    29   100   103    1
    30   100    99    1
    31    49    50    1
    32   103   105    1
    33    73    74   ar
    34    73    71   ar
    35    38    40   ar
    36    38    36   ar
    37    50    51    1
    38    50    53    1
    39    54    56    1
    40    54    53    1
    41    33    34    2
    42    33    32    1
    43    11     9    1
    44    74    72   ar
    45    35    36    1
    46    35    32    1
    47    40    39   ar
    48    71    70   ar
    49    36    37   ar
    50    51    52    2
    51    53    55    1
    52    32    31    1
    53     9     8    2
    54     9    10    1
    55     8     7    1
    56    39    37   ar
    57    72    70   ar
    58    70    69    1
    59    30    29    1
    60     6     7    1
    61     6     5    1
    62    65    66    1
    63    96    95    2
    64     1     2    1
    65    95    94    1
    66    69    66    1
    67    98    97    1
    68    66    67    1
    69    29    28    1
    70    68    67    2
    71     2     5    1
    72     2     3    1
    73    97    94    1
    74    94    93    1
    75    28    27    1
    76    64    62    1
    77    63    62    1
    78     3     4    2
    79    62    61    1
    80    27    24    1
    81    22    20   ar
    82    22    21   ar
    83    20    18   ar
    84    81    79    1
    85    25    24    1
    86    25    26    2
    87    61    58    1
    88    24    23    1
    89    92    90    1
    90    21    19   ar
    91    75    76    1
    92    91    90    1
    93    18    17   ar
    94    58    59    1
    95    58    57    1
    96    90    89    2
    97    79    76    1
    98    79    80    1
    99    59    60    2
   100    19    17   ar
   101    76    77    1
   102    17    16    1
   103    12    13    1
   104    89    88    1
   105    85    84    2
   106    84    83    1
   107    77    78    2
   108    13    16    1
   109    13    14    1
   110    88    87    1
   111    87    86    1
   112    86    83    1
   113    83    82    1
   114    14    15    2
