@<TRIPOS>MOLECULE
tmp/1uodB00.pdb
 105 102 0 0 0
SMALL
GASTEIGER

@<TRIPOS>ATOM
      1  N        100.4940   24.0110   72.6010 N.3    43  GLY43      -0.1210
      2  CA       100.6340   25.3630   72.1090 C.3    43  GLY43       0.1956
      3  C         99.6450   26.2370   72.8540 C.2    43  GLY43       0.2612
      4  O         99.0180   25.8350   73.8570 O.2    43  GLY43      -0.2717
      5  N         99.4820   27.4440   72.3650 N.am   44  GLY44      -0.1956
      6  CA        98.5980   28.3670   73.0590 C.3    44  GLY44       0.1869
      7  C         97.1720   27.8770   73.0500 C.2    44  GLY44       0.2309
      8  O         96.7840   27.0760   72.1960 O.2    44  GLY44      -0.2863
      9  N         92.9990   28.0490   69.9080 N.3    47  HIS47      -0.1241
     10  CA        92.9480   27.3120   68.6300 C.3    47  HIS47       0.1621
     11  C         92.0330   26.0840   68.6720 C.2    47  HIS47       0.2264
     12  O         92.0030   25.2720   67.7230 O.2    47  HIS47      -0.2867
     13  CB        94.3570   26.8530   68.1940 C.3    47  HIS47       0.0745
     14  CG        95.4120   27.9220   68.2820 C.ar   47  HIS47       0.0817
     15  ND1       95.3380   29.1130   67.5830 N.ar   47  HIS47      -0.2268
     16  CD2       96.5720   27.9710   68.9790 C.ar   47  HIS47       0.1154
     17  CE1       96.4000   29.8480   67.8510 C.ar   47  HIS47       0.1986
     18  NE2       97.1650   29.1800   68.6990 N.ar   47  HIS47      -0.2212
     19  N         97.1950   32.0900   73.0280 N.3    69  PHE69      -0.1227
     20  CA        98.2580   32.3540   72.0630 C.3    69  PHE69       0.1736
     21  C         99.6800   32.3070   72.6280 C.2    69  PHE69       0.2596
     22  O        100.5620   33.0170   72.1550 O.2    69  PHE69      -0.2718
     23  CB        98.0230   33.6670   71.2930 C.3    69  PHE69       0.0547
     24  CG        96.7490   33.6780   70.4610 C.ar   69  PHE69      -0.0202
     25  CD1       96.0670   32.5040   70.1800 C.ar   69  PHE69      -0.0042
     26  CD2       96.2420   34.8800   69.9620 C.ar   69  PHE69      -0.0042
     27  CE1       94.8890   32.5240   69.4120 C.ar   69  PHE69      -0.0003
     28  CE2       95.0810   34.9100   69.2020 C.ar   69  PHE69      -0.0003
     29  CZ        94.4020   33.7270   68.9250 C.ar   69  PHE69      -0.0000
     30  N         99.9170   31.4710   73.6330 N.am   70  THR70      -0.1939
     31  CA       101.2410   31.4160   74.2430 C.3    70  THR70       0.2028
     32  C        101.6750   29.9720   74.4770 C.2    70  THR70       0.2642
     33  O        100.9120   29.2070   75.0440 O.2    70  THR70      -0.2714
     34  CB       101.1600   32.1230   75.6240 C.3    70  THR70       0.1808
     35  OG1      100.6920   33.4740   75.4410 O.3    70  THR70      -0.2208
     36  CG2      102.5260   32.2490   76.2170 C.3    70  THR70       0.0379
     37  N        102.8850   29.5980   74.0530 N.am   71  SER71      -0.1949
     38  CA       103.3520   28.2180   74.2680 C.3    71  SER71       0.1924
     39  C        103.2550   27.7770   75.7330 C.2    71  SER71       0.2314
     40  O        103.4360   28.5950   76.6390 O.2    71  SER71      -0.2863
     41  CB       104.8250   28.0850   73.8300 C.3    71  SER71       0.2116
     42  OG       105.3190   26.7940   74.1590 O.3    71  SER71      -0.2180
     43  N        104.5700   23.0290   66.4870 N.3    95  LYS95      -0.1245
     44  CA       104.2630   23.9910   65.4160 C.3    95  LYS95       0.1561
     45  C        105.4280   24.9840   65.3830 C.2    95  LYS95       0.2260
     46  O        105.9870   25.3250   66.4250 O.2    95  LYS95      -0.2867
     47  CB       102.9390   24.7210   65.6850 C.3    95  LYS95       0.0271
     48  CG       101.7370   23.7300   65.7040 C.3    95  LYS95       0.0035
     49  CD       100.3650   24.4320   65.8480 C.3    95  LYS95       0.0206
     50  CE       100.3870   25.4210   66.9660 C.3    95  LYS95       0.1093
     51  NZ       100.3670   24.7270   68.2730 N.3    95  LYS95      -0.1314
     52  N        106.9750   28.0910   65.7310 N.3    97  TYR97      -0.1241
     53  CA       106.8860   29.4360   66.3180 C.3    97  TYR97       0.1605
     54  C        108.0140   29.5200   67.3310 C.2    97  TYR97       0.2264
     55  O        108.3660   28.5270   67.9670 O.2    97  TYR97      -0.2867
     56  CB       105.5470   29.6620   67.0480 C.3    97  TYR97       0.0534
     57  CG       104.4260   29.5670   66.0770 C.ar   97  TYR97      -0.0201
     58  CD1      103.7070   28.3790   65.9210 C.ar   97  TYR97      -0.0009
     59  CD2      104.0990   30.6660   65.2990 C.ar   97  TYR97      -0.0009
     60  CE1      102.6620   28.3030   64.9930 C.ar   97  TYR97       0.0417
     61  CE2      103.0830   30.6140   64.3910 C.ar   97  TYR97       0.0417
     62  CZ       102.3680   29.4490   64.2310 C.ar   97  TYR97       0.1957
     63  OH       101.3540   29.4570   63.2910 O.3    97  TYR97      -0.2866
     64  N        108.3660   30.6190   70.4000 N.3    99  GLY99      -0.1210
     65  CA       108.0390   30.1330   71.7340 C.3    99  GLY99       0.1956
     66  C        107.8380   28.6260   71.8000 C.2    99  GLY99       0.2611
     67  O        108.4010   27.9790   72.6870 O.2    99  GLY99      -0.2717
     68  N        107.0380   28.0610   70.8820 N.am  100  ASP100     -0.1973
     69  CA       106.8190   26.6150   70.8900 C.3   100  ASP100      0.1709
     70  C        108.1410   25.8810   70.6760 C.2   100  ASP100      0.2293
     71  O        108.4420   24.9110   71.3750 O.2   100  ASP100     -0.2864
     72  CB       105.8060   26.1730   69.8070 C.3   100  ASP100      0.1436
     73  CG       104.4120   26.7720   70.0210 C.2   100  ASP100      0.3671
     74  OD1      104.2970   27.8300   70.6790 O.co2 100  ASP100     -0.2456
     75  OD2      103.3750   26.2560   69.5700 O.co2 100  ASP100     -0.2456
     76  N        106.7320   36.0280   64.9550 N.3   134  TYR134     -0.1241
     77  CA       107.0890   35.0340   65.9490 C.3   134  TYR134      0.1605
     78  C        107.5830   33.7020   65.3880 C.2   134  TYR134      0.2264
     79  O        107.4340   32.6850   66.0420 O.2   134  TYR134     -0.2867
     80  CB       105.8890   34.7170   66.8440 C.3   134  TYR134      0.0534
     81  CG       105.1010   35.9350   67.2660 C.ar  134  TYR134     -0.0201
     82  CD1      104.0380   36.3960   66.4990 C.ar  134  TYR134     -0.0009
     83  CD2      105.4130   36.6260   68.4260 C.ar  134  TYR134     -0.0009
     84  CE1      103.3120   37.5090   66.8770 C.ar  134  TYR134      0.0417
     85  CE2      104.6930   37.7400   68.8140 C.ar  134  TYR134      0.0417
     86  CZ       103.6440   38.1770   68.0350 C.ar  134  TYR134      0.1957
     87  OH       102.9240   39.2860   68.4180 O.3   134  TYR134     -0.2866
     88  N         97.7530   32.1800   62.6430 N.3   197  ILE197     -0.1231
     89  CA        96.7180   31.7610   63.6280 C.3   197  ILE197      0.1692
     90  C         96.7930   32.4900   64.9790 C.2   197  ILE197      0.2592
     91  O         95.9710   32.2510   65.8810 O.2   197  ILE197     -0.2718
     92  CB        96.6680   30.2030   63.8020 C.3   197  ILE197      0.0266
     93  CG1       98.0350   29.6770   64.2740 C.3   197  ILE197      0.0019
     94  CG2       96.2380   29.5160   62.5130 C.3   197  ILE197      0.0020
     95  CD1       98.5120   30.2810   65.5750 C.3   197  ILE197      0.0001
     96  N         98.0510   33.6800   65.1330 N.am  198  HIS198     -0.1976
     97  CA        97.8040   34.1450   66.3940 C.3   198  HIS198      0.1656
     98  C         97.4790   35.5890   66.0910 C.2   198  HIS198      0.2291
     99  O         97.6720   36.4570   66.8930 O.2   198  HIS198     -0.2864
    100  CB        99.2060   34.0900   66.9820 C.3   198  HIS198      0.0771
    101  CG        99.8280   32.7570   67.3500 C.ar  198  HIS198      0.0820
    102  ND1      100.7340   32.0960   66.5910 N.ar  198  HIS198     -0.2267
    103  CD2       99.6070   31.9950   68.4940 C.ar  198  HIS198      0.1154
    104  CE1      101.0950   30.9350   67.2160 C.ar  198  HIS198      0.1986
    105  NE2      100.3950   30.9260   68.3420 N.ar  198  HIS198     -0.2212
@<TRIPOS>BOND
     1    94    92    1
     2    88    89    1
     3    63    62    1
     4    89    92    1
     5    89    90    1
     6    92    93    1
     7    62    61   ar
     8    62    60   ar
     9    93    95    1
    10    61    59   ar
    11    76    77    1
    12    90    96   am
    13    90    91    2
    14    60    58   ar
    15    96    97    1
    16    59    57   ar
    17    45    44    1
    18    45    46    2
    19    78    77    1
    20    78    79    2
    21    44    47    1
    22    44    43    1
    23    47    48    1
    24    48    49    1
    25    52    53    1
    26    49    50    1
    27    58    57   ar
    28    77    80    1
    29    57    56    1
    30    98    97    1
    31    98    99    2
    32    53    56    1
    33    53    54    1
    34    97   100    1
    35    82    84   ar
    36    82    81   ar
    37   102   104   ar
    38   102   101   ar
    39    80    81    1
    40    84    86   ar
    41    50    51    1
    42   100   101    1
    43   104   105   ar
    44    81    83   ar
    45    54    55    2
    46   101   103   ar
    47    15    17   ar
    48    15    14   ar
    49    12    11    2
    50    17    18   ar
    51    86    87    1
    52    86    85   ar
    53    13    14    1
    54    13    10    1
    55    14    16   ar
    56   105   103   ar
    57    83    85   ar
    58    10    11    1
    59    10     9    1
    60    18    16   ar
    61    29    28   ar
    62    29    27   ar
    63    28    26   ar
    64    27    25   ar
    65    75    73   ar
    66    72    73    1
    67    72    69    1
    68    26    24   ar
    69    73    74   ar
    70    25    24   ar
    71    64    65    1
    72    24    23    1
    73    70    69    1
    74    70    71    2
    75    68    69    1
    76    68    66   am
    77    23    20    1
    78    65    66    1
    79    66    67    2
    80    20    21    1
    81    20    19    1
    82     2     1    1
    83     2     3    1
    84    22    21    2
    85     8     7    2
    86     5     3   am
    87     5     6    1
    88    21    30   am
    89     3     4    2
    90     7     6    1
    91    30    31    1
    92    41    42    1
    93    41    38    1
    94    37    38    1
    95    37    32   am
    96    31    32    1
    97    31    34    1
    98    38    39    1
    99    32    33    2
   100    35    34    1
   101    34    36    1
   102    39    40    2
