@<TRIPOS>MOLECULE
tmp/1uogA00.pdb
 152 143 0 0 0
SMALL
GASTEIGER

@<TRIPOS>ATOM
      1  N         -7.7600   14.6120   50.4730 N.3    72  MET72      -0.1245
      2  CA        -6.8660   15.7360   50.8210 C.3    72  MET72       0.1570
      3  C         -6.0410   16.2600   49.6690 C.2    72  MET72       0.2261
      4  O         -4.9470   16.7200   49.8660 O.2    72  MET72      -0.2867
      5  CB        -5.9080   15.3390   51.9620 C.3    72  MET72       0.0387
      6  CG        -6.5570   14.7780   53.1630 C.3    72  MET72       0.0595
      7  SD        -5.3650   14.4530   54.5260 S.3    72  MET72      -0.1393
      8  CE        -4.0510   13.5090   53.5540 C.3    72  MET72       0.0692
      9  N         -0.0840   21.0870   51.2360 N.3   142  ARG142     -0.1245
     10  CA        -0.9640   20.6870   52.3210 C.3   142  ARG142      0.1563
     11  C         -0.5580   21.4950   53.5770 C.2   142  ARG142      0.2260
     12  O          0.6310   21.4870   53.9750 O.2   142  ARG142     -0.2867
     13  CB        -0.8240   19.2180   52.6210 C.3   142  ARG142      0.0307
     14  CG        -1.4480   18.3260   51.5610 C.3   142  ARG142      0.0489
     15  CD        -1.9310   17.0440   52.1320 C.3   142  ARG142      0.2205
     16  NE        -2.4240   16.1080   51.1200 N.pl3 142  ARG142     -0.0865
     17  CZ        -2.0400   14.8150   51.0510 C.cat 142  ARG142      0.5346
     18  NH1       -1.1470   14.3040   51.8830 N.pl3 142  ARG142      0.1354
     19  NH2       -2.5570   14.0060   50.1290 N.pl3 142  ARG142      0.1354
     20  N         -1.7370   21.6100   57.6350 N.3   144  ARG144     -0.1245
     21  CA        -2.5070   20.9340   58.6140 C.3   144  ARG144      0.1563
     22  C         -2.5010   21.7120   59.9730 C.2   144  ARG144      0.2260
     23  O         -1.5900   22.4860   60.2480 O.2   144  ARG144     -0.2867
     24  CB        -1.9770   19.5670   58.8490 C.3   144  ARG144      0.0307
     25  CG        -2.2980   18.5380   57.7900 C.3   144  ARG144      0.0489
     26  CD        -1.5920   17.2490   58.1540 C.3   144  ARG144      0.2205
     27  NE        -1.5750   16.2280   57.1170 N.pl3 144  ARG144     -0.0865
     28  CZ        -2.6230   15.5160   56.7750 C.cat 144  ARG144      0.5346
     29  NH1       -3.8050   15.7180   57.3790 N.pl3 144  ARG144      0.1354
     30  NH2       -2.4990   14.5890   55.8310 N.pl3 144  ARG144      0.1354
     31  N          9.8040    8.1750   56.8060 N.3   149  HIS149     -0.1241
     32  CA         9.5180    8.0350   55.3640 C.3   149  HIS149      0.1621
     33  C         10.4840    8.8850   54.5290 C.2   149  HIS149      0.2264
     34  O         11.0730    9.8140   55.0020 O.2   149  HIS149     -0.2867
     35  CB         8.0680    8.4520   55.0860 C.3   149  HIS149      0.0745
     36  CG         7.7690    9.8860   55.3250 C.ar  149  HIS149      0.0817
     37  ND1        7.2700   10.3520   56.5310 N.ar  149  HIS149     -0.2268
     38  CD2        7.8780   10.9630   54.5170 C.ar  149  HIS149      0.1154
     39  CE1        7.1320   11.6620   56.4680 C.ar  149  HIS149      0.1986
     40  NE2        7.5040   12.0630   55.2560 N.ar  149  HIS149     -0.2212
     41  N         10.3500   11.0260   50.7170 N.3   151  ASP151     -0.1239
     42  CA         9.3920   11.6530   49.8060 C.3   151  ASP151      0.1674
     43  C          9.6270   11.1560   48.3600 C.2   151  ASP151      0.2266
     44  O         10.7450   10.8900   47.9320 O.2   151  ASP151     -0.2867
     45  CB         9.4430   13.1760   49.8240 C.3   151  ASP151      0.1410
     46  CG         8.9550   13.7550   51.1570 C.2   151  ASP151      0.3668
     47  OD1        8.8040   12.9840   52.1170 O.co2 151  ASP151     -0.2456
     48  OD2        8.7180   14.9600   51.3500 O.co2 151  ASP151     -0.2456
     49  N         10.6380   18.7040   48.4630 N.3   156  THR156     -0.1218
     50  CA         9.5450   19.0450   49.2670 C.3   156  THR156      0.1862
     51  C          9.9980   20.2680   50.0990 C.2   156  THR156      0.2287
     52  O         11.0830   20.2400   50.7090 O.2   156  THR156     -0.2866
     53  CB         9.2740   17.8870   50.1990 C.3   156  THR156      0.1770
     54  OG1        8.7450   16.7250   49.4710 O.3   156  THR156     -0.2211
     55  CG2        8.1410   18.2900   51.1620 C.3   156  THR156      0.0375
     56  N          9.1770   22.8200   53.3370 N.3   158  ILE158     -0.1245
     57  CA         8.4020   22.8070   54.5880 C.3   158  ILE158      0.1561
     58  C          8.6650   24.1030   55.3480 C.2   158  ILE158      0.2260
     59  O          9.8070   24.4010   55.6870 O.2   158  ILE158     -0.2867
     60  CB         8.8200   21.6140   55.4260 C.3   158  ILE158      0.0252
     61  CG1        8.5910   20.3260   54.6810 C.3   158  ILE158      0.0019
     62  CG2        8.1490   21.5860   56.8080 C.3   158  ILE158      0.0019
     63  CD1        9.9310   19.7090   54.3040 C.3   158  ILE158      0.0001
     64  N         10.2090   18.2180   64.0390 N.3   162  LEU162     -0.1245
     65  CA        10.6850   17.5380   62.8350 C.3   162  LEU162      0.1561
     66  C         12.1190   16.9920   62.9340 C.2   162  LEU162      0.2260
     67  O         13.0810   17.6770   63.2820 O.2   162  LEU162     -0.2867
     68  CB        10.4990   18.4590   61.6210 C.3   162  LEU162      0.0270
     69  CG        10.6740   17.9700   60.1770 C.3   162  LEU162      0.0019
     70  CD1        9.8910   16.6950   59.8420 C.3   162  LEU162      0.0001
     71  CD2       10.2370   19.0510   59.1930 C.3   162  LEU162      0.0001
     72  N         13.6360   19.1580   51.6640 N.3   183  PHE183     -0.1241
     73  CA        13.9860   17.7070   51.6180 C.3   183  PHE183      0.1605
     74  C         14.0320   17.4080   50.1590 C.2   183  PHE183      0.2264
     75  O         13.1150   17.7430   49.3950 O.2   183  PHE183     -0.2867
     76  CB        12.9420   16.7490   52.2270 C.3   183  PHE183      0.0534
     77  CG        12.7860   16.8620   53.6930 C.ar  183  PHE183     -0.0203
     78  CD1       13.8930   16.8600   54.5100 C.ar  183  PHE183     -0.0042
     79  CD2       11.5500   16.8450   54.2800 C.ar  183  PHE183     -0.0042
     80  CE1       13.7650   16.9390   55.8910 C.ar  183  PHE183     -0.0003
     81  CE2       11.4430   16.9020   55.6850 C.ar  183  PHE183     -0.0003
     82  CZ        12.5880   16.9700   56.4540 C.ar  183  PHE183     -0.0000
     83  N         12.7670   10.9660   57.1120 N.3   201  HIS201     -0.1241
     84  CA        12.3510   11.9550   58.1090 C.3   201  HIS201      0.1621
     85  C         10.9460   11.6890   58.6130 C.2   201  HIS201      0.2264
     86  O         10.2410   10.8130   58.1470 O.2   201  HIS201     -0.2867
     87  CB        12.3760   13.3550   57.5110 C.3   201  HIS201      0.0745
     88  CG        11.6630   13.4500   56.2030 C.ar  201  HIS201      0.0817
     89  ND1       12.3000   13.1830   55.0040 N.ar  201  HIS201     -0.2268
     90  CD2       10.3830   13.7410   55.8970 C.ar  201  HIS201      0.1154
     91  CE1       11.4530   13.3470   54.0130 C.ar  201  HIS201      0.1986
     92  NE2       10.2760   13.6610   54.5220 N.ar  201  HIS201     -0.2212
     93  N          7.8270   13.4800   61.8140 N.3   203  VAL203     -0.1245
     94  CA         7.4300   14.4080   62.8780 C.3   203  VAL203      0.1561
     95  C          7.9440   14.0080   64.2720 C.2   203  VAL203      0.2260
     96  O          8.3040   12.8640   64.4940 O.2   203  VAL203     -0.2867
     97  CB         5.9210   14.4950   62.9260 C.3   203  VAL203      0.0252
     98  CG1        5.3900   15.0910   61.6660 C.3   203  VAL203      0.0019
     99  CG2        5.3250   13.1010   63.1010 C.3   203  VAL203      0.0019
    100  N          3.4690   21.8380   54.0790 N.3   208  VAL208     -0.1245
    101  CA         4.2990   20.9530   53.2490 C.3   208  VAL208      0.1561
    102  C          3.9560   21.1450   51.7880 C.2   208  VAL208      0.2260
    103  O          2.7820   20.9980   51.3630 O.2   208  VAL208     -0.2867
    104  CB         4.1400   19.4560   53.5980 C.3   208  VAL208      0.0252
    105  CG1        4.9540   18.6090   52.7540 C.3   208  VAL208      0.0019
    106  CG2        4.4920   19.1300   55.0490 C.3   208  VAL208      0.0019
    107  N          4.8590   19.7290   48.0720 N.3   210  PHE210     -0.1241
    108  CA         5.4810   18.7160   47.2670 C.3   210  PHE210      0.1605
    109  C          5.5430   19.1600   45.8020 C.2   210  PHE210      0.2264
    110  O          4.5210   19.3380   45.2050 O.2   210  PHE210     -0.2867
    111  CB         4.5660   17.4420   47.2860 C.3   210  PHE210      0.0534
    112  CG         4.3800   16.7660   48.6270 C.ar  210  PHE210     -0.0203
    113  CD1        3.1200   16.7340   49.1900 C.ar  210  PHE210     -0.0042
    114  CD2        5.3690   16.0230   49.2270 C.ar  210  PHE210     -0.0042
    115  CE1        2.9190   16.0620   50.3530 C.ar  210  PHE210     -0.0003
    116  CE2        5.1400   15.3780   50.3840 C.ar  210  PHE210     -0.0003
    117  CZ         3.9330   15.4080   50.9360 C.ar  210  PHE210     -0.0000
    118  N         -1.2130    9.4200   42.5290 N.3   248  TYR248     -0.1227
    119  CA         0.0080    9.9470   43.1840 C.3   248  TYR248      0.1736
    120  C          0.1770    9.2670   44.5380 C.2   248  TYR248      0.2595
    121  O         -0.8160    9.0980   45.2920 O.2   248  TYR248     -0.2718
    122  CB        -0.0400   11.5180   43.3520 C.3   248  TYR248      0.0548
    123  CG         0.3920   12.1990   42.1460 C.ar  248  TYR248     -0.0200
    124  CD1        1.7140   12.3490   41.8360 C.ar  248  TYR248     -0.0009
    125  CD2       -0.5850   12.6960   41.2710 C.ar  248  TYR248     -0.0009
    126  CE1        2.1420   12.9450   40.6310 C.ar  248  TYR248      0.0417
    127  CE2       -0.1720   13.3090   40.0370 C.ar  248  TYR248      0.0417
    128  CZ         1.1610   13.4710   39.7470 C.ar  248  TYR248      0.1957
    129  OH         1.6480   14.0200   38.5740 O.3   248  TYR248     -0.2866
    130  N          1.3940    8.9220   44.8300 N.am  249  VAL249     -0.1966
    131  CA         1.8520    8.5150   46.1230 C.3   249  VAL249      0.1727
    132  C          2.9710    9.5180   46.5170 C.2   249  VAL249      0.2616
    133  O          3.8960    9.6940   45.7770 O.2   249  VAL249     -0.2715
    134  CB         2.4500    7.0900   45.9960 C.3   249  VAL249      0.0290
    135  CG1        3.0200    6.6450   47.3310 C.3   249  VAL249      0.0023
    136  CG2        1.3640    6.0100   45.5960 C.3   249  VAL249      0.0023
    137  N          2.8430   10.1620   47.6500 N.am  250  ASN250     -0.1958
    138  CA         3.7080   11.2680   48.0330 C.3   250  ASN250      0.1819
    139  C          4.9070   10.8420   48.8910 C.2   250  ASN250      0.2621
    140  O          5.9720   11.4500   48.8120 O.2   250  ASN250     -0.2715
    141  CB         2.8700   12.2300   48.8340 C.3   250  ASN250      0.1195
    142  CG         1.7780   12.8440   47.9990 C.2   250  ASN250      0.2630
    143  OD1        2.0170   13.1630   46.8180 O.2   250  ASN250     -0.2716
    144  ND2        0.6090   12.9780   48.5590 N.am  250  ASN250     -0.0877
    145  N          4.7050    9.8290   49.7260 N.am  251  ILE251     -0.1977
    146  CA         5.7400    9.3180   50.6160 C.3   251  ILE251      0.1596
    147  C          5.8110    7.8080   50.6340 C.2   251  ILE251      0.2287
    148  O          4.8640    7.1100   50.2200 O.2   251  ILE251     -0.2864
    149  CB         5.5200    9.8940   52.0690 C.3   251  ILE251      0.0276
    150  CG1        4.2370    9.3180   52.6450 C.3   251  ILE251      0.0022
    151  CG2        5.4880   11.4040   52.0280 C.3   251  ILE251      0.0022
    152  CD1        3.8980    9.7250   54.1520 C.3   251  ILE251      0.0001
@<TRIPOS>BOND
     1   129   128    1
     2   128   127   ar
     3   128   126   ar
     4   127   125   ar
     5   126   124   ar
     6   125   123   ar
     7   124   123   ar
     8   123   122    1
     9   118   119    1
    10   119   122    1
    11   119   120    1
    12   120   130   am
    13   120   121    2
    14   130   131    1
    15   110   109    2
    16   136   134    1
    17   133   132    2
    18   109   108    1
    19   134   131    1
    20   134   135    1
    21   131   132    1
    22   132   137   am
    23   143   142    2
    24   108   111    1
    25   108   107    1
    26   111   112    1
    27   137   138    1
    28    44    43    2
    29   142   144   am
    30   142   141    1
    31   138   141    1
    32   138   139    1
    33    43    42    1
    34    49    50    1
    35   112   113   ar
    36   112   114   ar
    37   140   139    2
    38   139   145   am
    39   113   115   ar
    40   114   116   ar
    41    50    51    1
    42    50    53    1
    43    75    74    2
    44    54    53    1
    45     3     4    2
    46     3     2    1
    47   145   146    1
    48    42    45    1
    49    42    41    1
    50    45    46    1
    51    51    52    2
    52    19    17    1
    53    74    73    1
    54    53    55    1
    55   148   147    2
    56   115   117   ar
    57   116   117   ar
    58     1     2    1
    59   146   147    1
    60   146   149    1
    61     2     5    1
    62    17    16    2
    63    17    18    1
    64    16    15    1
    65    46    48   ar
    66    46    47   ar
    67     9    10    1
    68   103   102    2
    69    14    15    1
    70    14    13    1
    71    73    72    1
    72    73    76    1
    73   102   101    1
    74     5     6    1
    75   151   149    1
    76   149   150    1
    77    76    77    1
    78    10    13    1
    79    10    11    1
    80   150   152    1
    81   105   104    1
    82     6     7    1
    83   101   104    1
    84   101   100    1
    85    56    57    1
    86     8     7    1
    87    11    12    2
    88   104   106    1
    89    77    79   ar
    90    77    78   ar
    91    91    92   ar
    92    91    89   ar
    93    79    81   ar
    94    63    61    1
    95    78    80   ar
    96    38    40   ar
    97    38    36   ar
    98    92    90   ar
    99    33    34    2
   100    33    32    1
   101    57    58    1
   102    57    60    1
   103    61    60    1
   104    89    88   ar
   105    35    36    1
   106    35    32    1
   107    40    39   ar
   108    36    37   ar
   109    58    59    2
   110    32    31    1
   111    60    62    1
   112    81    82   ar
   113    30    28    1
   114    80    82   ar
   115    90    88   ar
   116    88    87    1
   117    39    37   ar
   118    28    27    2
   119    28    29    1
   120    83    84    1
   121    27    26    1
   122    87    84    1
   123    20    21    1
   124    25    26    1
   125    25    24    1
   126    84    85    1
   127    86    85    2
   128    21    24    1
   129    21    22    1
   130    71    69    1
   131    70    69    1
   132    22    23    2
   133    69    68    1
   134    68    65    1
   135    98    97    1
   136    93    94    1
   137    65    66    1
   138    65    64    1
   139    94    97    1
   140    94    95    1
   141    97    99    1
   142    66    67    2
   143    95    96    2
