@<TRIPOS>MOLECULE
tmp/1uomA00.pdb
 202 191 0 0 0
SMALL
GASTEIGER

@<TRIPOS>ATOM
      1  N         -6.5020   57.4060   31.1380 N.3    37  MET37      -0.1245
      2  CA        -6.4950   56.8520   29.7870 C.3    37  MET37       0.1570
      3  C         -5.8200   57.8400   28.8400 C.2    37  MET37       0.2261
      4  O         -4.9690   57.4610   28.0260 O.2    37  MET37      -0.2867
      5  CB        -7.9320   56.5730   29.3320 C.3    37  MET37       0.0387
      6  CG        -8.0560   55.6050   28.1580 C.3    37  MET37       0.0595
      7  SD        -7.4070   53.9400   28.5030 S.3    37  MET37      -0.1393
      8  CE        -6.1550   53.8150   27.2780 C.3    37  MET37       0.0692
      9  N         -1.9970   57.6340   29.1670 N.3    40  LEU40      -0.1231
     10  CA        -1.4850   56.4190   28.5340 C.3    40  LEU40       0.1693
     11  C         -1.6130   56.4820   27.0120 C.2    40  LEU40       0.2592
     12  O         -0.6760   56.1370   26.2900 O.2    40  LEU40      -0.2718
     13  CB        -2.2320   55.1900   29.0700 C.3    40  LEU40       0.0284
     14  CG        -1.6530   54.4720   30.2910 C.3    40  LEU40       0.0019
     15  CD1       -1.0230   55.4580   31.2510 C.3    40  LEU40       0.0001
     16  CD2       -2.7530   53.6770   30.9620 C.3    40  LEU40       0.0001
     17  N         -2.7680   56.9330   26.5310 N.am   41  THR41      -0.1953
     18  CA        -3.0070   57.0330   25.0950 C.3    41  THR41       0.1897
     19  C         -1.9810   57.9050   24.3810 C.2    41  THR41       0.2313
     20  O         -1.3720   57.4790   23.3990 O.2    41  THR41      -0.2863
     21  CB        -4.3910   57.6050   24.7980 C.3    41  THR41       0.1794
     22  OG1       -5.3870   56.7320   25.3380 O.3    41  THR41      -0.2208
     23  CG2       -4.5970   57.7390   23.2950 C.3    41  THR41       0.0378
     24  N          0.8830   58.7840   25.3960 N.3    43  LEU43      -0.1231
     25  CA         2.1970   58.1800   25.5460 C.3    43  LEU43       0.1693
     26  C          2.4370   57.1000   24.4880 C.2    43  LEU43       0.2592
     27  O          3.4570   57.1080   23.7940 O.2    43  LEU43      -0.2718
     28  CB         2.3330   57.5710   26.9370 C.3    43  LEU43       0.0284
     29  CG         3.6430   56.8250   27.1950 C.3    43  LEU43       0.0019
     30  CD1        4.8080   57.8000   27.1770 C.3    43  LEU43       0.0001
     31  CD2        3.5580   56.1090   28.5300 C.3    43  LEU43       0.0001
     32  N          1.4920   56.1720   24.3640 N.am   44  ALA44      -0.1966
     33  CA         1.6210   55.0770   23.4040 C.3    44  ALA44       0.1728
     34  C          1.7070   55.5790   21.9670 C.2    44  ALA44       0.2616
     35  O          2.5160   55.0840   21.1730 O.2    44  ALA44      -0.2715
     36  CB         0.4460   54.0970   23.5530 C.3    44  ALA44       0.0334
     37  N          0.8790   56.5640   21.6310 N.am   45  ASP45      -0.1971
     38  CA         0.8850   57.1050   20.2780 C.3    45  ASP45       0.1709
     39  C          2.2470   57.6580   19.8890 C.2    45  ASP45       0.2293
     40  O          2.6160   57.6110   18.7160 O.2    45  ASP45      -0.2864
     41  CB        -0.1940   58.1770   20.1250 C.3    45  ASP45       0.1436
     42  CG        -1.5930   57.6250   20.3270 C.2    45  ASP45       0.3671
     43  OD1       -1.7270   56.4300   20.6640 O.co2  45  ASP45      -0.2456
     44  OD2       -2.5670   58.3880   20.1590 O.co2  45  ASP45      -0.2456
     45  N          5.2000   56.5530   21.2950 N.3    47  GLU47      -0.1231
     46  CA         6.1410   55.4490   21.2630 C.3    47  GLU47       0.1699
     47  C          5.9870   54.7100   19.9480 C.2    47  GLU47       0.2592
     48  O          6.9520   54.1570   19.4150 O.2    47  GLU47      -0.2718
     49  CB         5.8650   54.4760   22.3940 C.3    47  GLU47       0.0402
     50  CG         6.0540   55.0440   23.7600 C.3    47  GLU47       0.1161
     51  CD         5.6460   54.0490   24.8200 C.2    47  GLU47       0.3649
     52  OE1        6.4450   53.1460   25.1410 O.co2  47  GLU47      -0.2457
     53  OE2        4.5030   54.1700   25.3150 O.co2  47  GLU47      -0.2457
     54  N          4.7640   54.6930   19.4290 N.am   48  LEU48      -0.1980
     55  CA         4.4930   53.9870   18.1790 C.3    48  LEU48       0.1596
     56  C          5.4240   54.4710   17.0770 C.2    48  LEU48       0.2287
     57  O          5.9660   53.6730   16.3020 O.2    48  LEU48      -0.2864
     58  CB         3.0370   54.1840   17.7500 C.3    48  LEU48       0.0297
     59  CG         2.6450   53.4360   16.4740 C.3    48  LEU48       0.0022
     60  CD1        2.7410   51.9400   16.7260 C.3    48  LEU48       0.0001
     61  CD2        1.2360   53.8140   16.0650 C.3    48  LEU48       0.0001
     62  N          2.0520   45.6210   17.4040 N.3    77  TRP77      -0.1227
     63  CA         2.2240   46.9100   18.0810 C.3    77  TRP77       0.1737
     64  C          1.9310   46.9690   19.5860 C.2    77  TRP77       0.2595
     65  O          2.7800   47.4050   20.3650 O.2    77  TRP77      -0.2718
     66  CB         1.4450   48.0280   17.3460 C.3    77  TRP77       0.0564
     67  CG        -0.0180   48.1250   17.6560 C.ar   77  TRP77       0.0003
     68  CD1       -1.0410   47.5050   16.9980 C.ar   77  TRP77       0.0946
     69  CD2       -0.6270   48.9000   18.7040 C.ar   77  TRP77       0.0152
     70  NE1       -2.2440   47.8430   17.5680 N.ar   77  TRP77      -0.2442
     71  CE2       -2.0190   48.6980   18.6170 C.ar   77  TRP77       0.0810
     72  CE3       -0.1270   49.7440   19.7080 C.ar   77  TRP77       0.0012
     73  CZ2       -2.9230   49.3110   19.4900 C.ar   77  TRP77       0.0191
     74  CZ3       -1.0290   50.3570   20.5790 C.ar   77  TRP77       0.0001
     75  CH2       -2.4110   50.1350   20.4640 C.ar   77  TRP77       0.0015
     76  N          0.7460   46.5420   20.0040 N.am   78  LEU78      -0.1980
     77  CA         0.4050   46.5840   21.4260 C.3    78  LEU78       0.1596
     78  C          1.2000   45.5800   22.2660 C.2    78  LEU78       0.2287
     79  O          1.5150   45.8550   23.4210 O.2    78  LEU78      -0.2864
     80  CB        -1.0960   46.3460   21.6320 C.3    78  LEU78       0.0297
     81  CG        -1.6100   46.4700   23.0690 C.3    78  LEU78       0.0022
     82  CD1       -1.1870   47.8100   23.6700 C.3    78  LEU78       0.0001
     83  CD2       -3.1310   46.3460   23.0750 C.3    78  LEU78       0.0001
     84  N          4.4920   47.2590   22.9260 N.3    81  LEU81      -0.1231
     85  CA         4.3870   48.3180   23.9140 C.3    81  LEU81       0.1693
     86  C          4.3350   47.6730   25.3080 C.2    81  LEU81       0.2591
     87  O          4.9880   48.1430   26.2510 O.2    81  LEU81      -0.2718
     88  CB         3.1250   49.1470   23.6810 C.3    81  LEU81       0.0284
     89  CG         3.1510   50.1640   22.5360 C.3    81  LEU81       0.0019
     90  CD1        1.9340   51.0350   22.6750 C.3    81  LEU81       0.0001
     91  CD2        4.4030   51.0430   22.5840 C.3    81  LEU81       0.0001
     92  N          3.5690   46.5860   25.4220 N.am   82  MET82      -0.1979
     93  CA         3.4150   45.8640   26.6840 C.3    82  MET82       0.1605
     94  C          4.6900   45.1820   27.1830 C.2    82  MET82       0.2287
     95  O          5.0800   45.3590   28.3400 O.2    82  MET82      -0.2864
     96  CB         2.2780   44.8210   26.5770 C.3    82  MET82       0.0413
     97  CG         0.8750   45.4220   26.4660 C.3    82  MET82       0.0598
     98  SD        -0.4710   44.2210   26.4360 S.3    82  MET82      -0.1393
     99  CE        -1.6620   45.0250   27.4680 C.3    82  MET82       0.0692
    100  N          6.8250   47.7860   28.5130 N.3    85  LEU85      -0.1245
    101  CA         6.3660   48.2940   29.8030 C.3    85  LEU85       0.1561
    102  C          6.7710   47.3460   30.9380 C.2    85  LEU85       0.2260
    103  O          7.2970   47.7710   31.9660 O.2    85  LEU85      -0.2867
    104  CB         4.8470   48.4450   29.7930 C.3    85  LEU85       0.0270
    105  CG         4.1520   48.7270   31.1280 C.3    85  LEU85       0.0019
    106  CD1        4.7830   49.9460   31.8260 C.3    85  LEU85       0.0001
    107  CD2        2.6740   48.9780   30.8600 C.3    85  LEU85       0.0001
    108  N         10.7310   47.5300   31.8130 N.3    88  ARG88      -0.1245
    109  CA        11.1530   48.6380   32.6530 C.3    88  ARG88       0.1563
    110  C         10.4840   48.6820   34.0160 C.2    88  ARG88       0.2260
    111  O         10.9090   49.4340   34.8940 O.2    88  ARG88      -0.2867
    112  CB        10.9540   49.9640   31.9290 C.3    88  ARG88       0.0307
    113  CG         9.5980   50.1950   31.3350 C.3    88  ARG88       0.0489
    114  CD         9.5620   51.6060   30.7590 C.3    88  ARG88       0.2205
    115  NE         8.2470   51.9780   30.2590 N.pl3  88  ARG88      -0.0865
    116  CZ         7.7920   51.6610   29.0520 C.cat  88  ARG88       0.5346
    117  NH1        8.5540   50.9670   28.2120 N.pl3  88  ARG88       0.1354
    118  NH2        6.5730   52.0330   28.6910 N.pl3  88  ARG88       0.1354
    119  N          5.2880   53.2890   33.3990 N.3    98  PHE98      -0.1241
    120  CA         4.8130   53.6610   32.0760 C.3    98  PHE98       0.1605
    121  C          5.7850   54.6450   31.4430 C.2    98  PHE98       0.2264
    122  O          5.9280   54.6930   30.2220 O.2    98  PHE98      -0.2867
    123  CB         3.4280   54.3060   32.1790 C.3    98  PHE98       0.0534
    124  CG         2.3130   53.3300   32.4390 C.ar   98  PHE98      -0.0203
    125  CD1        1.7940   52.5570   31.4020 C.ar   98  PHE98      -0.0042
    126  CD2        1.7610   53.2010   33.7140 C.ar   98  PHE98      -0.0042
    127  CE1        0.7380   51.6710   31.6280 C.ar   98  PHE98      -0.0003
    128  CE2        0.7070   52.3210   33.9530 C.ar   98  PHE98      -0.0003
    129  CZ         0.1930   51.5510   32.9040 C.ar   98  PHE98      -0.0000
    130  N         -9.6700   48.5410   33.9860 N.3   115  MET115     -0.1245
    131  CA        -8.2620   48.7650   33.7110 C.3   115  MET115      0.1570
    132  C         -7.3780   48.0810   34.7450 C.2   115  MET115      0.2261
    133  O         -6.2280   47.7520   34.4670 O.2   115  MET115     -0.2867
    134  CB        -7.9610   50.2610   33.6850 C.3   115  MET115      0.0387
    135  CG        -6.5400   50.5870   33.2870 C.3   115  MET115      0.0595
    136  SD        -6.1970   52.3130   33.5610 S.3   115  MET115     -0.1393
    137  CE        -6.7180   53.0230   31.9870 C.3   115  MET115      0.0692
    138  N         -6.1380   44.6730   33.5860 N.3   118  ILE118     -0.1231
    139  CA        -4.9780   44.7390   32.7190 C.3   118  ILE118      0.1692
    140  C         -3.6970   45.0530   33.4910 C.2   118  ILE118      0.2592
    141  O         -2.6520   44.4730   33.2000 O.2   118  ILE118     -0.2718
    142  CB        -5.2330   45.7670   31.5970 C.3   118  ILE118      0.0266
    143  CG1       -6.4560   45.3130   30.7840 C.3   118  ILE118      0.0019
    144  CG2       -4.0250   45.8760   30.6860 C.3   118  ILE118      0.0020
    145  CD1       -6.8580   46.2460   29.6660 C.3   118  ILE118      0.0001
    146  N         -3.7770   45.9530   34.4750 N.am  119  PHE119     -0.1976
    147  CA        -2.6050   46.2930   35.2890 C.3   119  PHE119      0.1639
    148  C         -2.1070   45.0450   36.0090 C.2   119  PHE119      0.2290
    149  O         -0.9130   44.7530   36.0010 O.2   119  PHE119     -0.2864
    150  CB        -2.9350   47.3620   36.3460 C.3   119  PHE119      0.0560
    151  CG        -2.8590   48.7800   35.8400 C.ar  119  PHE119     -0.0200
    152  CD1       -2.5490   49.8190   36.7100 C.ar  119  PHE119     -0.0042
    153  CD2       -3.1190   49.0800   34.5050 C.ar  119  PHE119     -0.0042
    154  CE1       -2.4940   51.1350   36.2610 C.ar  119  PHE119     -0.0003
    155  CE2       -3.0690   50.3880   34.0420 C.ar  119  PHE119     -0.0003
    156  CZ        -2.7570   51.4200   34.9220 C.ar  119  PHE119     -0.0000
    157  N         -0.3210   42.7570   33.8670 N.3   122  LEU122     -0.1245
    158  CA         0.9780   43.3340   33.5670 C.3   122  LEU122      0.1561
    159  C          1.9330   43.1620   34.7350 C.2   122  LEU122      0.2260
    160  O          3.0730   42.7530   34.5490 O.2   122  LEU122     -0.2867
    161  CB         0.8240   44.8150   33.2200 C.3   122  LEU122      0.0270
    162  CG         0.1870   44.9890   31.8400 C.3   122  LEU122      0.0019
    163  CD1       -0.4010   46.3660   31.7170 C.3   122  LEU122      0.0001
    164  CD2        1.2230   44.7280   30.7580 C.3   122  LEU122      0.0001
    165  N         -6.2420   44.0480   26.0960 N.3   215  GLY215     -0.1225
    166  CA        -5.9810   45.4590   25.8890 C.3   215  GLY215      0.1811
    167  C         -6.6930   46.0000   24.6620 C.2   215  GLY215      0.2280
    168  O         -7.1720   47.1290   24.6770 O.2   215  GLY215     -0.2866
    169  N        -10.5450   46.6080   25.6610 N.3   218  HIS218     -0.1226
    170  CA       -10.7090   47.7850   26.4950 C.3   218  HIS218      0.1752
    171  C        -10.5090   48.9840   25.5840 C.2   218  HIS218      0.2595
    172  O        -11.3010   49.9260   25.5800 O.2   218  HIS218     -0.2718
    173  CB        -9.6620   47.7670   27.6090 C.3   218  HIS218      0.0759
    174  CG        -9.8190   48.8710   28.6050 C.ar  218  HIS218      0.0818
    175  ND1       -9.5920   50.1940   28.2930 N.ar  218  HIS218     -0.2268
    176  CD2      -10.1750   48.8470   29.9100 C.ar  218  HIS218      0.1154
    177  CE1       -9.8000   50.9380   29.3650 C.ar  218  HIS218      0.1986
    178  NE2      -10.1540   50.1450   30.3600 N.ar  218  HIS218     -0.2212
    179  N         -9.4470   48.9220   24.7890 N.am  219  LEU219     -0.1980
    180  CA        -9.1310   49.9850   23.8500 C.3   219  LEU219      0.1596
    181  C        -10.2350   50.0730   22.8020 C.2   219  LEU219      0.2287
    182  O        -10.7360   51.1540   22.5030 O.2   219  LEU219     -0.2864
    183  CB        -7.7980   49.6910   23.1700 C.3   219  LEU219      0.0297
    184  CG        -6.8520   50.8760   23.0170 C.3   219  LEU219      0.0022
    185  CD1       -6.5950   51.4970   24.3880 C.3   219  LEU219      0.0001
    186  CD2       -5.5520   50.4080   22.3720 C.3   219  LEU219      0.0001
    187  N         -5.5750   51.8630   11.5070 N.3   221  LEU221     -0.1245
    188  CA        -4.2170   51.6700   12.0050 C.3   221  LEU221      0.1561
    189  C         -3.2880   51.2540   10.8730 C.2   221  LEU221      0.2260
    190  O         -2.1050   51.5940   10.8760 O.2   221  LEU221     -0.2867
    191  CB        -4.1890   50.6110   13.1120 C.3   221  LEU221      0.0270
    192  CG        -2.8380   50.4530   13.8160 C.3   221  LEU221      0.0019
    193  CD1       -2.4850   51.7550   14.5150 C.3   221  LEU221      0.0001
    194  CD2       -2.8900   49.3060   14.8090 C.3   221  LEU221      0.0001
    195  N         -2.2790   54.3660    8.9300 N.3   224  LEU224     -0.1245
    196  CA        -1.4500   55.1410    9.8390 C.3   224  LEU224      0.1561
    197  C         -0.0480   54.5380    9.8140 C.2   224  LEU224      0.2260
    198  O          0.9450   55.2370    9.5880 O.2   224  LEU224     -0.2867
    199  CB        -2.0370   55.0620   11.2540 C.3   224  LEU224      0.0270
    200  CG        -1.3900   55.8270   12.4120 C.3   224  LEU224      0.0019
    201  CD1       -1.3600   57.3180   12.1160 C.3   224  LEU224      0.0001
    202  CD2       -2.1870   55.5630   13.6820 C.3   224  LEU224      0.0001
@<TRIPOS>BOND
     1   195   196    1
     2   198   197    2
     3   197   196    1
     4   196   199    1
     5   189   190    2
     6   189   188    1
     7   199   200    1
     8   187   188    1
     9   188   191    1
    10   201   200    1
    11   200   202    1
    12   191   192    1
    13   192   193    1
    14   192   194    1
    15    61    59    1
    16    57    56    2
    17    59    60    1
    18    59    58    1
    19    68    70   ar
    20    68    67   ar
    21    56    55    1
    22    66    67    1
    23    66    63    1
    24    62    63    1
    25    70    71   ar
    26    67    69   ar
    27    58    55    1
    28    63    64    1
    29    55    54    1
    30    71    69   ar
    31    71    73   ar
    32    69    72   ar
    33    40    39    2
    34    48    47    2
    35    54    47   am
    36    73    75   ar
    37    64    76   am
    38    64    65    2
    39    72    74   ar
    40    39    38    1
    41    47    46    1
    42    76    77    1
    43    41    38    1
    44    41    42    1
    45    44    42   ar
    46    38    37    1
    47    42    43   ar
    48    75    74   ar
    49    35    34    2
    50    46    45    1
    51    46    49    1
    52    77    80    1
    53    77    78    1
    54    37    34   am
    55    80    81    1
    56    34    33    1
    57    78    79    2
    58   186   184    1
    59    49    50    1
    60   182   181    2
    61    89    91    1
    62    89    90    1
    63    89    88    1
    64   181   180    1
    65    84    85    1
    66   184   183    1
    67   184   185    1
    68    81    83    1
    69    81    82    1
    70   183   180    1
    71    23    21    1
    72    20    19    2
    73    33    36    1
    74    33    32    1
    75    88    85    1
    76    50    51    1
    77    27    26    2
    78   180   179    1
    79    85    86    1
    80    32    26   am
    81    19    18    1
    82    26    25    1
    83   167   168    2
    84   167   166    1
    85   179   171   am
    86    21    18    1
    87    21    22    1
    88    51    52   ar
    89    51    53   ar
    90    18    17    1
    91    86    92   am
    92    86    87    2
    93    24    25    1
    94    92    93    1
    95    25    28    1
    96   172   171    2
    97   171   170    1
    98   169   170    1
    99   166   165    1
   100    12    11    2
   101    98    97    1
   102    98    99    1
   103    97    96    1
   104   170   173    1
   105    17    11   am
   106    96    93    1
   107    93    94    1
   108    28    29    1
   109    11    10    1
   110    30    29    1
   111    94    95    2
   112    29    31    1
   113     8     7    1
   114   173   174    1
   115     4     3    2
   116     6     7    1
   117     6     5    1
   118   117   116    1
   119   175   174   ar
   120   175   177   ar
   121   100   101    1
   122    10    13    1
   123    10     9    1
   124   174   176   ar
   125   118   116    1
   126     3     2    1
   127   116   115    2
   128    13    14    1
   129     5     2    1
   130   177   178   ar
   131   145   143    1
   132     2     1    1
   133   104   101    1
   134   104   105    1
   135   101   102    1
   136   176   178   ar
   137   122   121    2
   138   115   114    1
   139    14    16    1
   140    14    15    1
   141   144   142    1
   142   164   162    1
   143   114   113    1
   144   143   142    1
   145   107   105    1
   146   102   103    2
   147   105   106    1
   148   113   112    1
   149   125   127   ar
   150   125   124   ar
   151   121   120    1
   152   142   139    1
   153   127   129   ar
   154   163   162    1
   155   108   109    1
   156   162   161    1
   157   112   109    1
   158   137   136    1
   159   120   123    1
   160   120   119    1
   161   123   124    1
   162   124   126   ar
   163   109   110    1
   164   139   140    1
   165   139   138    1
   166   129   128   ar
   167   141   140    2
   168   161   158    1
   169   135   136    1
   170   135   134    1
   171   140   146   am
   172   158   157    1
   173   158   159    1
   174   134   131    1
   175   131   130    1
   176   131   132    1
   177   126   128   ar
   178   110   111    2
   179   155   153   ar
   180   155   156   ar
   181   133   132    2
   182   146   147    1
   183   153   151   ar
   184   160   159    2
   185   156   154   ar
   186   147   148    1
   187   147   150    1
   188   151   150    1
   189   151   152   ar
   190   149   148    2
   191   154   152   ar
