@<TRIPOS>MOLECULE
tmp/1uouA00.pdb
 146 137 0 0 0
SMALL
GASTEIGER

@<TRIPOS>ATOM
      1  N          4.2770    3.4780   23.9680 N.3    84  HIS84      -0.1226
      2  CA         3.0340    3.1820   24.6540 C.3    84  HIS84       0.1752
      3  C          1.9620    4.2110   24.3210 C.2    84  HIS84       0.2597
      4  O          2.2630    5.3550   24.1010 O.2    84  HIS84      -0.2718
      5  CB         3.2630    3.1190   26.1580 C.3    84  HIS84       0.0759
      6  CG         2.2580    2.2780   26.8670 C.ar   84  HIS84       0.0818
      7  ND1        2.5600    1.0430   27.4030 N.ar   84  HIS84      -0.2268
      8  CD2        0.9480    2.4920   27.1180 C.ar   84  HIS84       0.1154
      9  CE1        1.4720    0.5290   27.9430 C.ar   84  HIS84       0.1986
     10  NE2        0.4800    1.3860   27.7760 N.ar   84  HIS84      -0.2212
     11  N          0.7120    3.7860   24.2690 N.am   85  SER85      -0.1938
     12  CA        -0.4010    4.6960   24.0110 C.3    85  SER85       0.2055
     13  C         -1.2800    4.8430   25.2570 C.2    85  SER85       0.2644
     14  O         -1.4290    3.8900   26.0090 O.2    85  SER85      -0.2714
     15  CB        -1.2230    4.1460   22.8650 C.3    85  SER85       0.2130
     16  OG        -2.2340    5.0460   22.4870 O.3    85  SER85      -0.2179
     17  N         -1.8610    6.0260   25.4780 N.am   86  THR86      -0.1936
     18  CA        -2.8200    6.2140   26.5670 C.3    86  THR86       0.2028
     19  C         -4.1900    5.8550   26.0620 C.2    86  THR86       0.2642
     20  O         -5.1520    6.0000   26.7850 O.2    86  THR86      -0.2714
     21  CB        -2.8830    7.6420   27.1150 C.3    86  THR86       0.1808
     22  OG1       -3.3930    8.5090   26.1200 O.3    86  THR86      -0.2208
     23  CG2       -1.5050    8.1920   27.4030 C.3    86  THR86       0.0379
     24  N         -4.3000    5.4320   24.8150 N.am   87  GLY87      -0.1954
     25  CA        -5.4910    4.7410   24.4080 C.3    87  GLY87       0.1869
     26  C         -6.3260    5.4570   23.3910 C.2    87  GLY87       0.2309
     27  O         -6.6440    6.6250   23.5070 O.2    87  GLY87      -0.2863
     28  N          2.5720   -4.5190   27.8760 N.3   112  SER112     -0.1202
     29  CA         1.3180   -3.8430   27.5260 C.3   112  SER112      0.2020
     30  C          0.1810   -4.4260   28.3790 C.2   112  SER112      0.2619
     31  O          0.4220   -5.2950   29.2230 O.2   112  SER112     -0.2717
     32  CB         1.0270   -4.0810   26.0370 C.3   112  SER112      0.2103
     33  OG         0.0010   -3.2150   25.5430 O.3   112  SER112     -0.2182
     34  N         -1.0600   -4.0160   28.1370 N.am  113  GLY113     -0.1942
     35  CA        -2.1680   -4.4960   28.9450 C.3   113  GLY113      0.2014
     36  C         -3.4340   -4.8810   28.1920 C.2   113  GLY113      0.2638
     37  O         -3.4380   -5.0160   26.9930 O.2   113  GLY113     -0.2714
     38  N         -4.5230   -5.0490   28.9280 N.am  114  ARG114     -0.1977
     39  CA        -5.7900   -5.4710   28.3520 C.3   114  ARG114      0.1597
     40  C         -6.7050   -4.2870   28.1710 C.2   114  ARG114      0.2287
     41  O         -6.2730   -3.1250   28.2940 O.2   114  ARG114     -0.2864
     42  CB        -6.4340   -6.5050   29.2500 C.3   114  ARG114      0.0334
     43  CG        -5.5930   -7.7210   29.3270 C.3   114  ARG114      0.0492
     44  CD        -6.2260   -8.8390   29.9940 C.3   114  ARG114      0.2205
     45  NE        -5.3280   -9.9880   29.9670 N.pl3 114  ARG114     -0.0865
     46  CZ        -5.2310  -10.8650   28.9650 C.cat 114  ARG114      0.5346
     47  NH1       -5.9850  -10.7580   27.8650 N.pl3 114  ARG114      0.1354
     48  NH2       -4.3790  -11.8670   29.0760 N.pl3 114  ARG114      0.1354
     49  N         -9.0410   -1.4710   28.7900 N.3   116  LEU116     -0.1245
     50  CA        -9.2060   -0.5850   29.9170 C.3   116  LEU116      0.1561
     51  C        -10.0640    0.5770   29.5260 C.2   116  LEU116      0.2260
     52  O         -9.7060    1.3550   28.6340 O.2   116  LEU116     -0.2867
     53  CB        -7.8650   -0.0430   30.3740 C.3   116  LEU116      0.0270
     54  CG        -7.8840    0.7760   31.6400 C.3   116  LEU116      0.0019
     55  CD1       -8.1200   -0.1740   32.7830 C.3   116  LEU116      0.0001
     56  CD2       -6.5740    1.5050   31.8380 C.3   116  LEU116      0.0001
     57  N        -11.3230    1.6380   25.6230 N.3   119  THR119     -0.1203
     58  CA       -10.2630    1.4120   24.6520 C.3   119  THR119      0.1994
     59  C         -9.8640   -0.0720   24.7640 C.2   119  THR119      0.2618
     60  O         -9.8900   -0.6370   25.8320 O.2   119  THR119     -0.2717
     61  CB        -9.0680    2.4080   24.8340 C.3   119  THR119      0.1784
     62  OG1       -8.3140    2.0920   26.0010 O.3   119  THR119     -0.2211
     63  CG2       -9.5480    3.8230   25.1370 C.3   119  THR119      0.0376
     64  N         -9.6020   -0.7120   23.6350 N.am  120  GLY120     -0.1942
     65  CA        -9.1880   -2.1040   23.6020 C.3   120  GLY120      0.2014
     66  C         -7.7040   -2.2160   23.8470 C.2   120  GLY120      0.2639
     67  O         -6.9660   -1.2520   23.7330 O.2   120  GLY120     -0.2714
     68  N         -7.2650   -3.4110   24.1770 N.am  121  GLY121     -0.1939
     69  CA        -5.9130   -3.6320   24.6470 C.3   121  GLY121      0.2014
     70  C         -5.1510   -4.5660   23.7450 C.2   121  GLY121      0.2639
     71  O         -5.7000   -5.5310   23.1990 O.2   121  GLY121     -0.2714
     72  N         -3.8660   -4.2660   23.6060 N.am  122  THR122     -0.1950
     73  CA        -2.9940   -4.9330   22.6670 C.3   122  THR122      0.1897
     74  C         -2.9700   -6.4200   22.9900 C.2   122  THR122      0.2313
     75  O         -3.0390   -7.2590   22.1060 O.2   122  THR122     -0.2863
     76  CB        -1.5800   -4.3420   22.7820 C.3   122  THR122      0.1794
     77  OG1       -1.6170   -2.9210   22.5210 O.3   122  THR122     -0.2208
     78  CG2       -0.6550   -4.9190   21.7270 C.3   122  THR122      0.0378
     79  N         -4.9190   -2.3160   37.6690 N.3   167  TYR167     -0.1241
     80  CA        -5.3940   -2.0980   36.2780 C.3   167  TYR167      0.1605
     81  C         -6.7650   -2.7510   36.0730 C.2   167  TYR167      0.2264
     82  O         -7.6890   -2.1180   35.5290 O.2   167  TYR167     -0.2867
     83  CB        -4.3500   -2.7180   35.3270 C.3   167  TYR167      0.0534
     84  CG        -4.4190   -2.4650   33.8320 C.ar  167  TYR167     -0.0201
     85  CD1       -5.4180   -3.0420   33.0550 C.ar  167  TYR167     -0.0009
     86  CD2       -3.4190   -1.7250   33.1720 C.ar  167  TYR167     -0.0009
     87  CE1       -5.4610   -2.8530   31.6760 C.ar  167  TYR167      0.0417
     88  CE2       -3.4620   -1.5310   31.7890 C.ar  167  TYR167      0.0417
     89  CZ        -4.4930   -2.1010   31.0510 C.ar  167  TYR167      0.1957
     90  OH        -4.5840   -1.9660   29.6950 O.3   167  TYR167     -0.2866
     91  N         -9.3980   -0.7780   38.2820 N.3   170  ARG170     -0.1245
     92  CA        -9.7300    0.5080   37.7130 C.3   170  ARG170      0.1563
     93  C        -10.7290    0.3870   36.5790 C.2   170  ARG170      0.2260
     94  O        -11.6110    1.2240   36.3980 O.2   170  ARG170     -0.2867
     95  CB        -8.4640    1.2000   37.2220 C.3   170  ARG170      0.0307
     96  CG        -7.5090    1.6140   38.3610 C.3   170  ARG170      0.0489
     97  CD        -6.0930    1.9320   37.8980 C.3   170  ARG170      0.2205
     98  NE        -6.1150    3.0100   36.9100 N.pl3 170  ARG170     -0.0865
     99  CZ        -5.3190    3.1100   35.8520 C.cat 170  ARG170      0.5346
    100  NH1       -5.4720    4.1380   35.0240 N.pl3 170  ARG170      0.1354
    101  NH2       -4.3660    2.2130   35.6150 N.pl3 170  ARG170      0.1354
    102  N        -10.2030    4.8590   35.9230 N.3   176  VAL176     -0.1245
    103  CA        -9.2700    4.8210   34.8070 C.3   176  VAL176      0.1561
    104  C         -8.6910    6.2170   34.5220 C.2   176  VAL176      0.2260
    105  O         -7.5140    6.3690   34.4400 O.2   176  VAL176     -0.2867
    106  CB        -9.9400    4.2760   33.5120 C.3   176  VAL176      0.0252
    107  CG1       -8.9720    4.3240   32.3310 C.3   176  VAL176      0.0019
    108  CG2      -10.4000    2.8640   33.7240 C.3   176  VAL176      0.0019
    109  N         -2.6680    6.6020   35.7300 N.3   182  ILE182     -0.1245
    110  CA        -2.2220    6.3280   34.3580 C.3   182  ILE182      0.1561
    111  C         -0.6940    6.4250   34.3000 C.2   182  ILE182      0.2260
    112  O         -0.0350    5.5020   33.8890 O.2   182  ILE182     -0.2867
    113  CB        -2.8840    7.3390   33.3610 C.3   182  ILE182      0.0252
    114  CG1       -4.3910    7.1490   33.3520 C.3   182  ILE182      0.0019
    115  CG2       -2.3270    7.1960   31.9460 C.3   182  ILE182      0.0019
    116  CD1       -5.1420    8.0930   32.4650 C.3   182  ILE182      0.0001
    117  N          0.9300    3.5650   36.0680 N.3   185  SER185     -0.1202
    118  CA         0.6770    2.3320   35.3290 C.3   185  SER185      0.2020
    119  C          1.5890    2.2460   34.0620 C.2   185  SER185      0.2618
    120  O          2.2700    1.2490   33.8450 O.2   185  SER185     -0.2717
    121  CB        -0.8070    2.2500   34.9720 C.3   185  SER185      0.2103
    122  OG        -1.1340    1.0530   34.2980 O.3   185  SER185     -0.2182
    123  N          1.6070    3.2910   33.2430 N.am  186  ILE186     -0.1979
    124  CA         2.4440    3.3210   32.0530 C.3   186  ILE186      0.1595
    125  C          3.9180    3.3370   32.4340 C.2   186  ILE186      0.2287
    126  O          4.6390    2.4290   32.0740 O.2   186  ILE186     -0.2864
    127  CB         2.0550    4.4940   31.1100 C.3   186  ILE186      0.0276
    128  CG1        0.6630    4.2580   30.5350 C.3   186  ILE186      0.0022
    129  CG2        3.0240    4.6280   29.9220 C.3   186  ILE186      0.0022
    130  CD1        0.0790    5.4690   29.7660 C.3   186  ILE186      0.0001
    131  N          5.5800    0.0170   33.9850 N.3   189  LYS189     -0.1245
    132  CA         5.8370   -0.9760   32.9610 C.3   189  LYS189      0.1561
    133  C          7.1330   -0.6650   32.2050 C.2   189  LYS189      0.2260
    134  O          7.9840   -1.5400   31.9700 O.2   189  LYS189     -0.2867
    135  CB         4.6770   -0.9900   31.9560 C.3   189  LYS189      0.0271
    136  CG         3.4870   -1.7870   32.3940 C.3   189  LYS189      0.0035
    137  CD         2.4400   -1.8670   31.2960 C.3   189  LYS189      0.0206
    138  CE         1.0520   -1.8590   31.8710 C.3   189  LYS189      0.1093
    139  NZ         0.7970   -0.5940   32.5590 N.3   189  LYS189     -0.1314
    140  N         -8.9320    8.8230   26.4790 N.3   207  VAL207     -0.1245
    141  CA        -9.1800    8.8650   27.9330 C.3   207  VAL207      0.1561
    142  C         -9.4530   10.3010   28.4750 C.2   207  VAL207      0.2260
    143  O        -10.1190   10.4680   29.4980 O.2   207  VAL207     -0.2867
    144  CB        -8.0220    8.1320   28.7480 C.3   207  VAL207      0.0252
    145  CG1       -7.9730    8.5760   30.2240 C.3   207  VAL207      0.0019
    146  CG2       -8.1740    6.6080   28.6790 C.3   207  VAL207      0.0019
@<TRIPOS>BOND
     1    78    76    1
     2    75    74    2
     3    16    15    1
     4    77    76    1
     5    73    76    1
     6    73    74    1
     7    73    72    1
     8    15    12    1
     9    71    70    2
    10    26    27    2
    11    26    25    1
    12    65    64    1
    13    65    66    1
    14    72    70   am
    15    64    59   am
    16    67    66    2
    17    70    69    1
    18    66    68   am
    19     1     2    1
    20    12    11    1
    21    12    13    1
    22     4     3    2
    23    68    69    1
    24    11     3   am
    25     3     2    1
    26    25    24    1
    27    58    59    1
    28    58    61    1
    29    58    57    1
    30     2     5    1
    31    59    60    2
    32    24    19   am
    33    61    63    1
    34    61    62    1
    35    13    17   am
    36    13    14    2
    37    17    18    1
    38    33    32    1
    39    32    29    1
    40    19    18    1
    41    19    20    2
    42    22    21    1
    43     5     6    1
    44   140   141    1
    45    18    21    1
    46     6     8   ar
    47     6     7   ar
    48    37    36    2
    49    21    23    1
    50     8    10   ar
    51     7     9   ar
    52    29    28    1
    53    29    30    1
    54    10     9   ar
    55    47    46    1
    56   141   142    1
    57   141   144    1
    58    34    30   am
    59    34    35    1
    60    40    41    2
    61    40    39    1
    62    36    38   am
    63    36    35    1
    64    39    38    1
    65    39    42    1
    66    30    31    2
    67   142   143    2
    68    52    51    2
    69   146   144    1
    70   144   145    1
    71    49    50    1
    72    46    48    1
    73    46    45    2
    74    42    43    1
    75    43    44    1
    76    51    50    1
    77    90    89    1
    78   130   128    1
    79    50    53    1
    80   129   127    1
    81    45    44    1
    82    53    54    1
    83   128   127    1
    84    89    87   ar
    85    89    88   ar
    86   127   124    1
    87   137   138    1
    88   137   136    1
    89    54    56    1
    90    54    55    1
    91    87    85   ar
    92    88    86   ar
    93   138   139    1
    94   115   113    1
    95   135   136    1
    96   135   132    1
    97   134   133    2
    98   124   125    1
    99   124   123    1
   100   126   125    2
   101   133   132    1
   102   107   106    1
   103   116   114    1
   104   132   131    1
   105    85    84   ar
   106    86    84   ar
   107   123   119   am
   108   114   113    1
   109   113   110    1
   110   106   108    1
   111   106   103    1
   112    84    83    1
   113   120   119    2
   114   112   111    2
   115   119   118    1
   116   122   121    1
   117   111   110    1
   118   110   109    1
   119   105   104    2
   120   104   103    1
   121   103   102    1
   122   121   118    1
   123   100    99    1
   124    83    80    1
   125   118   117    1
   126    82    81    2
   127   101    99    1
   128    99    98    2
   129    81    80    1
   130    80    79    1
   131    94    93    2
   132    93    92    1
   133    98    97    1
   134    95    92    1
   135    95    96    1
   136    92    91    1
   137    97    96    1
