@<TRIPOS>MOLECULE
tmp/1uozA00.pdb
 121 117 0 0 0
SMALL
GASTEIGER

@<TRIPOS>ATOM
      1  N         12.0870   12.4980   16.1820 N.3    82  TYR82      -0.1241
      2  CA        13.1670   12.1760   17.0940 C.3    82  TYR82       0.1605
      3  C         12.5920   11.8360   18.4770 C.2    82  TYR82       0.2264
      4  O         12.8920   12.4720   19.4720 O.2    82  TYR82      -0.2867
      5  CB        14.1540   13.3440   17.1280 C.3    82  TYR82       0.0534
      6  CG        15.5060   13.0690   17.7360 C.ar   82  TYR82      -0.0201
      7  CD1       16.2420   11.9360   17.4490 C.ar   82  TYR82      -0.0009
      8  CD2       16.0770   14.0130   18.6090 C.ar   82  TYR82      -0.0009
      9  CE1       17.5020   11.7360   17.9820 C.ar   82  TYR82       0.0417
     10  CE2       17.3520   13.8160   19.1460 C.ar   82  TYR82       0.0417
     11  CZ        18.0590   12.6960   18.8290 C.ar   82  TYR82       0.1957
     12  OH        19.3100   12.5180   19.3810 O.3    82  TYR82      -0.2866
     13  N         19.0690    8.3770   22.0370 N.3    88  ASP88      -0.1239
     14  CA        20.4650    8.7060   22.2560 C.3    88  ASP88       0.1674
     15  C         21.1350    7.7920   23.2600 C.2    88  ASP88       0.2266
     16  O         22.2160    8.1310   23.7610 O.2    88  ASP88      -0.2867
     17  CB        20.6600   10.1660   22.6620 C.3    88  ASP88       0.1410
     18  CG        21.9550   10.7360   22.1940 C.2    88  ASP88       0.3668
     19  OD1       22.3340   10.4950   21.0220 O.co2  88  ASP88      -0.2456
     20  OD2       22.6080   11.4570   22.9750 O.co2  88  ASP88      -0.2456
     21  N         22.4610    9.5140   26.4480 N.3    91  SER91      -0.1217
     22  CA        23.5750   10.4560   26.4130 C.3    91  SER91       0.1889
     23  C         23.0240   11.9000   26.3020 C.2    91  SER91       0.2288
     24  O         21.9450   12.1890   26.8140 O.2    91  SER91      -0.2866
     25  CB        24.5480   10.0650   25.3070 C.3    91  SER91       0.2089
     26  OG        25.6980   10.8850   25.2970 O.3    91  SER91      -0.2183
     27  N         21.6170   13.8240   24.2620 N.3    93  ALA93      -0.1245
     28  CA        20.3170   14.0750   23.6470 C.3    93  ALA93       0.1562
     29  C         19.2970   13.0470   24.1460 C.2    93  ALA93       0.2260
     30  O         18.3400   12.7020   23.4290 O.2    93  ALA93      -0.2867
     31  CB        20.3980   14.1130   22.1360 C.3    93  ALA93       0.0290
     32  N         16.7870   10.0530   13.5120 N.3   125  PRO125     -0.2102
     33  CA        18.2650   10.1810   13.5290 C.3   125  PRO125      0.1504
     34  C         18.8730    9.2790   14.5840 C.2   125  PRO125      0.2575
     35  O         18.4630    9.3180   15.7600 O.2   125  PRO125     -0.2718
     36  CB        18.4820   11.6590   13.8300 C.3   125  PRO125      0.0282
     37  CG        17.2810   12.3200   13.1490 C.3   125  PRO125      0.0208
     38  CD        16.1280   11.3750   13.4850 C.3   125  PRO125      0.0893
     39  N         19.8560    8.4980   14.1620 N.am  126  ASP126     -0.1974
     40  CA        20.6680    7.6190   15.0010 C.3   126  ASP126      0.1708
     41  C         20.0080    6.3450   15.4500 C.2   126  ASP126      0.2293
     42  O         20.6890    5.4860   16.0130 O.2   126  ASP126     -0.2864
     43  CB        21.2130    8.3070   16.2700 C.3   126  ASP126      0.1436
     44  CG        21.8900    9.6090   16.0020 C.2   126  ASP126      0.3671
     45  OD1       22.5430    9.7630   14.9520 O.co2 126  ASP126     -0.2456
     46  OD2       21.8170   10.5080   16.8870 O.co2 126  ASP126     -0.2456
     47  N         22.6030    3.4040   16.2690 N.3   130  MET130     -0.1245
     48  CA        22.9980    3.3490   17.6720 C.3   130  MET130      0.1570
     49  C         22.3720    2.1630   18.3950 C.2   130  MET130      0.2261
     50  O         22.6600    1.9520   19.5680 O.2   130  MET130     -0.2867
     51  CB        22.6070    4.6540   18.3870 C.3   130  MET130      0.0387
     52  CG        23.4830    4.9980   19.5950 C.3   130  MET130      0.0595
     53  SD        22.9390    6.4580   20.4840 S.3   130  MET130     -0.1393
     54  CE        23.6780    7.7060   19.5270 C.3   130  MET130      0.0692
     55  N         26.0090    7.2200    9.2300 N.3   167  HIS167     -0.1241
     56  CA        26.9390    7.8670    8.3300 C.3   167  HIS167      0.1621
     57  C         28.0480    6.8860    7.9820 C.2   167  HIS167      0.2264
     58  O         28.1370    5.7830    8.5160 O.2   167  HIS167     -0.2867
     59  CB        27.5000    9.1720    8.9280 C.3   167  HIS167      0.0745
     60  CG        28.2030    8.9680   10.2210 C.ar  167  HIS167      0.0817
     61  ND1       29.3920    8.2630   10.3350 N.ar  167  HIS167     -0.2268
     62  CD2       27.8680    9.4110   11.4550 C.ar  167  HIS167      0.1154
     63  CE1       29.7360    8.2940   11.6130 C.ar  167  HIS167      0.1986
     64  NE2       28.8380    8.9840   12.3170 N.ar  167  HIS167     -0.2212
     65  N         30.0980    5.0110   10.7370 N.3   170  TRP170     -0.1241
     66  CA        29.3470    4.4260   11.8270 C.3   170  TRP170      0.1605
     67  C         29.2250    2.9180   11.5670 C.2   170  TRP170      0.2264
     68  O         30.1950    2.2000   11.7320 O.2   170  TRP170     -0.2867
     69  CB        28.0340    5.1730   12.0330 C.3   170  TRP170      0.0550
     70  CG        27.4510    4.9780   13.4240 C.ar  170  TRP170      0.0003
     71  CD1       27.6660    3.9450   14.3000 C.ar  170  TRP170      0.0946
     72  CD2       26.6010    5.8990   14.0840 C.ar  170  TRP170      0.0152
     73  NE1       26.9900    4.1810   15.4560 N.ar  170  TRP170     -0.2442
     74  CE2       26.3200    5.3700   15.3480 C.ar  170  TRP170      0.0810
     75  CE3       26.0210    7.1200   13.7100 C.ar  170  TRP170      0.0012
     76  CZ2       25.4810    6.0200   16.2400 C.ar  170  TRP170      0.0191
     77  CZ3       25.1990    7.7650   14.6070 C.ar  170  TRP170      0.0001
     78  CH2       24.9200    7.2050   15.8490 C.ar  170  TRP170      0.0015
     79  N         23.2940   12.9940    9.4590 N.3   195  VAL195     -0.1231
     80  CA        22.4910   13.9170   10.2450 C.3   195  VAL195      0.1692
     81  C         23.2660   14.3260   11.5030 C.2   195  VAL195      0.2593
     82  O         23.7800   13.4700   12.2440 O.2   195  VAL195     -0.2718
     83  CB        21.1230   13.3040   10.5980 C.3   195  VAL195      0.0266
     84  CG1       20.3690   14.2360   11.5450 C.3   195  VAL195      0.0020
     85  CG2       20.3260   13.0850    9.3510 C.3   195  VAL195      0.0020
     86  N         23.3770   15.6320   11.7180 N.am  196  SER196     -0.1938
     87  CA        24.1340   16.1860   12.8370 C.3   196  SER196      0.2055
     88  C         25.6170   15.8640   12.7670 C.2   196  SER196      0.2643
     89  O         26.3140   16.0940   13.7670 O.2   196  SER196     -0.2714
     90  CB        23.5590   15.8110   14.2070 C.3   196  SER196      0.2130
     91  OG        22.2190   16.2510   14.3360 O.3   196  SER196     -0.2179
     92  N         26.1260   15.3910   11.6480 N.am  197  ASN197     -0.1971
     93  CA        27.5500   15.1050   11.5440 C.3   197  ASN197      0.1688
     94  C         28.1740   15.9920   10.4600 C.2   197  ASN197      0.2292
     95  O         27.5970   16.9890   10.0490 O.2   197  ASN197     -0.2864
     96  CB        27.8180   13.5810   11.4280 C.3   197  ASN197      0.1181
     97  CG        29.1040   13.1610   12.1330 C.2   197  ASN197      0.2629
     98  OD1       30.1930   13.6400   11.8050 O.2   197  ASN197     -0.2716
     99  ND2       28.9960   12.2870   13.1240 N.am  197  ASN197     -0.0877
    100  N         32.3790   14.8400   17.2570 N.3   239  TRP239     -0.1241
    101  CA        31.0750   15.1480   16.7160 C.3   239  TRP239      0.1605
    102  C         30.2940   16.0960   17.6190 C.2   239  TRP239      0.2264
    103  O         29.2080   16.5010   17.2570 O.2   239  TRP239     -0.2867
    104  CB        30.2770   13.8380   16.5140 C.3   239  TRP239      0.0550
    105  CG        30.2750   12.9880   17.7480 C.ar  239  TRP239      0.0003
    106  CD1       31.1590   11.9850   18.0400 C.ar  239  TRP239      0.0946
    107  CD2       29.4430   13.1360   18.8820 C.ar  239  TRP239      0.0152
    108  NE1       30.9200   11.5090   19.3020 N.ar  239  TRP239     -0.2442
    109  CE2       29.8730   12.1890   19.8410 C.ar  239  TRP239      0.0810
    110  CE3       28.3710   13.9480   19.1990 C.ar  239  TRP239      0.0012
    111  CZ2       29.2540   12.0240   21.0680 C.ar  239  TRP239      0.0191
    112  CZ3       27.7720   13.7820   20.4120 C.ar  239  TRP239      0.0001
    113  CH2       28.2380   12.8350   21.3440 C.ar  239  TRP239      0.0015
    114  N         25.1860   20.5390   20.2460 N.3   273  ASP273     -0.1239
    115  CA        25.1280   19.0940   20.2060 C.3   273  ASP273      0.1674
    116  C         24.9570   18.4800   21.5880 C.2   273  ASP273      0.2266
    117  O         24.6340   17.2920   21.6840 O.2   273  ASP273     -0.2867
    118  CB        26.3940   18.5260   19.5560 C.3   273  ASP273      0.1410
    119  CG        26.5080   18.9560   18.1190 C.2   273  ASP273      0.3668
    120  OD1       25.4520   18.8150   17.3890 O.co2 273  ASP273     -0.2456
    121  OD2       27.5800   19.4000   17.6710 O.co2 273  ASP273     -0.2456
@<TRIPOS>BOND
     1    57    56    1
     2    57    58    2
     3    56    59    1
     4    56    55    1
     5    59    60    1
     6    85    83    1
     7    79    80    1
     8    95    94    2
     9    60    61   ar
    10    60    62   ar
    11    80    83    1
    12    80    81    1
    13    61    63   ar
    14    94    93    1
    15    83    84    1
    16    65    66    1
    17    96    93    1
    18    96    97    1
    19    62    64   ar
    20    81    86   am
    21    81    82    2
    22    93    92    1
    23    67    68    2
    24    67    66    1
    25    63    64   ar
    26    92    88   am
    27    86    87    1
    28    98    97    2
    29    66    69    1
    30    69    70    1
    31    97    99   am
    32    88    87    1
    33    88    89    2
    34    87    90    1
    35    37    38    1
    36    37    36    1
    37    70    72   ar
    38    70    71   ar
    39    38    32    1
    40    32    33    1
    41    33    36    1
    42    33    34    1
    43    75    72   ar
    44    75    77   ar
    45    72    74   ar
    46    39    34   am
    47    39    40    1
    48    90    91    1
    49    71    73   ar
    50    34    35    2
    51    77    78   ar
    52    45    44   ar
    53    40    41    1
    54    40    43    1
    55    74    73   ar
    56    74    76   ar
    57    41    42    2
    58    78    76   ar
    59    44    43    1
    60    44    46   ar
    61     1     2    1
    62    47    48    1
    63   104   101    1
    64   104   105    1
    65   101   100    1
    66   101   102    1
    67     2     5    1
    68     2     3    1
    69     5     6    1
    70   103   102    2
    71   120   119   ar
    72     7     6   ar
    73     7     9   ar
    74   121   119   ar
    75    48    51    1
    76    48    49    1
    77     6     8   ar
    78   105   106   ar
    79   105   107   ar
    80     9    11   ar
    81   106   108   ar
    82   119   118    1
    83    51    52    1
    84    49    50    2
    85     3     4    2
    86     8    10   ar
    87    11    10   ar
    88    11    12    1
    89   107   110   ar
    90   107   109   ar
    91   110   112   ar
    92   108   109   ar
    93    54    53    1
    94   118   115    1
    95    52    53    1
    96   109   111   ar
    97   115   114    1
    98   115   116    1
    99   112   113   ar
   100    19    18   ar
   101   111   113   ar
   102   116   117    2
   103    13    14    1
   104    31    28    1
   105    18    17    1
   106    18    20   ar
   107    14    17    1
   108    14    15    1
   109    15    16    2
   110    30    29    2
   111    28    29    1
   112    28    27    1
   113    26    25    1
   114    25    22    1
   115    23    22    1
   116    23    24    2
   117    22    21    1
