@<TRIPOS>MOLECULE
tmp/1up2A03.pdb
 102 95 0 0 0
SMALL
GASTEIGER

@<TRIPOS>ATOM
      1  N         12.1780   19.7200   13.9770 N.3    41  TRP41      -0.1241
      2  CA        12.3140   18.5150   14.7980 C.3    41  TRP41       0.1605
      3  C         11.1530   18.3820   15.7940 C.2    41  TRP41       0.2264
      4  O         10.8160   19.3320   16.5280 O.2    41  TRP41      -0.2867
      5  CB        13.6280   18.5300   15.5890 C.3    41  TRP41       0.0550
      6  CG        14.8690   18.3730   14.7710 C.ar   41  TRP41       0.0003
      7  CD1       15.3050   19.2210   13.8050 C.ar   41  TRP41       0.0946
      8  CD2       15.8650   17.3480   14.8730 C.ar   41  TRP41       0.0152
      9  NE1       16.4840   18.7790   13.2710 N.ar   41  TRP41      -0.2442
     10  CE2       16.8740   17.6490   13.9200 C.ar   41  TRP41       0.0810
     11  CE3       16.0270   16.2200   15.6780 C.ar   41  TRP41       0.0012
     12  CZ2       17.9980   16.8810   13.7470 C.ar   41  TRP41       0.0191
     13  CZ3       17.1680   15.4380   15.5020 C.ar   41  TRP41       0.0001
     14  CH2       18.1480   15.7820   14.5540 C.ar   41  TRP41       0.0015
     15  N          9.6800   15.8680   18.9960 N.3    43  ASP43      -0.1239
     16  CA         9.9840   14.8080   19.9380 C.3    43  ASP43       0.1674
     17  C          8.8960   14.6930   20.9830 C.2    43  ASP43       0.2266
     18  O          7.7520   15.0420   20.7090 O.2    43  ASP43      -0.2867
     19  CB        11.3780   15.0260   20.5160 C.3    43  ASP43       0.1410
     20  CG        11.4880   16.2820   21.3660 C.2    43  ASP43       0.3668
     21  OD1       10.4860   17.0310   21.5800 O.co2  43  ASP43      -0.2456
     22  OD2       12.5960   16.5820   21.8440 O.co2  43  ASP43      -0.2456
     23  N         12.1140   12.5660   16.2030 N.3    74  TYR74      -0.1241
     24  CA        13.1970   12.2550   17.1350 C.3    74  TYR74       0.1605
     25  C         12.6230   11.9300   18.5190 C.2    74  TYR74       0.2264
     26  O         12.9280   12.5950   19.5070 O.2    74  TYR74      -0.2867
     27  CB        14.2020   13.4340   17.1850 C.3    74  TYR74       0.0534
     28  CG        15.5250   13.1540   17.8330 C.ar   74  TYR74      -0.0201
     29  CD1       16.2690   11.9820   17.5390 C.ar   74  TYR74      -0.0009
     30  CD2       16.1040   14.0960   18.7050 C.ar   74  TYR74      -0.0009
     31  CE1       17.4890   11.7310   18.1500 C.ar   74  TYR74       0.0417
     32  CE2       17.3100   13.8230   19.3460 C.ar   74  TYR74       0.0417
     33  CZ        18.0020   12.6500   19.0600 C.ar   74  TYR74       0.1957
     34  OH        19.2290   12.4310   19.6850 O.3    74  TYR74      -0.2866
     35  N         16.0680    7.2850   23.5900 N.3    79  ARG79      -0.1245
     36  CA        16.7050    8.1620   22.6210 C.3    79  ARG79       0.1563
     37  C         18.1130    8.5040   23.0230 C.2    79  ARG79       0.2260
     38  O         18.3630    8.7960   24.2110 O.2    79  ARG79      -0.2867
     39  CB        15.9280    9.4420   22.4720 C.3    79  ARG79       0.0307
     40  CG        16.3460   10.2690   21.2850 C.3    79  ARG79       0.0489
     41  CD        15.5480   11.5280   21.1920 C.3    79  ARG79       0.2205
     42  NE        15.9560   12.5430   22.1630 N.pl3  79  ARG79      -0.0865
     43  CZ        15.3500   13.7220   22.3110 C.cat  79  ARG79       0.5346
     44  NH1       14.3140   14.0420   21.5580 N.pl3  79  ARG79       0.1354
     45  NH2       15.7970   14.6170   23.2070 N.pl3  79  ARG79       0.1354
     46  N         21.6770   13.7710   24.3680 N.3    85  ALA85      -0.1245
     47  CA        20.3410   14.0830   23.8500 C.3    85  ALA85       0.1562
     48  C         19.2960   13.0980   24.3480 C.2    85  ALA85       0.2260
     49  O         18.3400   12.7810   23.6400 O.2    85  ALA85      -0.2867
     50  CB        20.3680   14.1410   22.2900 C.3    85  ALA85       0.0290
     51  N         23.4330   15.5900   11.6370 N.3   187  SER187     -0.1217
     52  CA        24.1560   16.2250   12.7190 C.3   187  SER187      0.1889
     53  C         25.6280   15.8480   12.7150 C.2   187  SER187      0.2288
     54  O         26.3090   16.0460   13.7080 O.2   187  SER187     -0.2866
     55  CB        23.5550   15.8940   14.0990 C.3   187  SER187      0.2089
     56  OG        22.1440   16.0620   14.1580 O.3   187  SER187     -0.2183
     57  N         20.0180   18.6600   10.7240 N.3   258  LYS258     -0.1231
     58  CA        20.4890   19.3960   11.9070 C.3   258  LYS258      0.1693
     59  C         20.3880   20.8990   11.6230 C.2   258  LYS258      0.2591
     60  O         20.6480   21.3100   10.4960 O.2   258  LYS258     -0.2718
     61  CB        21.9510   19.0230   12.2060 C.3   258  LYS258      0.0285
     62  CG        22.6370   19.8680   13.3010 C.3   258  LYS258      0.0035
     63  CD        22.0910   19.5070   14.7080 C.3   258  LYS258      0.0206
     64  CE        22.6520   20.4350   15.7940 C.3   258  LYS258      0.1093
     65  NZ        21.9670   20.2910   17.1340 N.3   258  LYS258     -0.1314
     66  N         20.0380   21.7010   12.6410 N.am  259  ARG259     -0.1980
     67  CA        19.9880   23.1720   12.5160 C.3   259  ARG259      0.1597
     68  C         21.2900   23.8490   12.9810 C.2   259  ARG259      0.2287
     69  O         21.6230   23.7910   14.1750 O.2   259  ARG259     -0.2864
     70  CB        18.7960   23.7230   13.3060 C.3   259  ARG259      0.0334
     71  CG        17.4450   23.1950   12.8300 C.3   259  ARG259      0.0492
     72  CD        16.1990   23.9460   13.3730 C.3   259  ARG259      0.2205
     73  NE        15.0680   23.8510   12.4480 N.pl3 259  ARG259     -0.0865
     74  CZ        13.9030   24.4760   12.5790 C.cat 259  ARG259      0.5346
     75  NH1       13.6290   25.2410   13.6300 N.pl3 259  ARG259      0.1354
     76  NH2       12.9720   24.2790   11.6600 N.pl3 259  ARG259      0.1354
     77  N         22.5440   25.1000   16.7230 N.3   262  GLU262     -0.1245
     78  CA        21.9680   24.3890   17.8290 C.3   262  GLU262      0.1567
     79  C         23.0390   23.4470   18.3920 C.2   262  GLU262      0.2260
     80  O         23.6830   22.6880   17.6490 O.2   262  GLU262     -0.2867
     81  CB        20.6570   23.7360   17.4020 C.3   262  GLU262      0.0388
     82  CG        19.6690   24.8150   16.9660 C.3   262  GLU262      0.1160
     83  CD        18.2390   24.3650   16.8030 C.2   262  GLU262      0.3649
     84  OE1       17.9290   23.1330   16.8180 O.co2 262  GLU262     -0.2457
     85  OE2       17.3900   25.2990   16.6540 O.co2 262  GLU262     -0.2457
     86  N         25.1170   20.5180   20.2150 N.3   264  ASP264     -0.1239
     87  CA        25.0750   19.0690   20.2190 C.3   264  ASP264      0.1674
     88  C         24.9690   18.4680   21.6100 C.2   264  ASP264      0.2266
     89  O         24.6920   17.2870   21.7390 O.2   264  ASP264     -0.2867
     90  CB        26.3320   18.4960   19.5560 C.3   264  ASP264      0.1410
     91  CG        26.4680   18.9140   18.1080 C.2   264  ASP264      0.3668
     92  OD1       25.4930   18.7550   17.3380 O.co2 264  ASP264     -0.2456
     93  OD2       27.5210   19.4130   17.6600 O.co2 264  ASP264     -0.2456
     94  N         21.7920   19.9120   24.4130 N.3   274  ALA274     -0.1231
     95  CA        21.5080   19.5430   23.0180 C.3   274  ALA274      0.1694
     96  C         20.2190   20.2230   22.5080 C.2   274  ALA274      0.2592
     97  O         19.1700   20.1510   23.1400 O.2   274  ALA274     -0.2718
     98  CB        21.4180   18.0300   22.8920 C.3   274  ALA274      0.0304
     99  N         20.3300   20.9060   21.3690 N.am  275  GLY275     -0.1957
    100  CA        19.2170   21.6130   20.7800 C.3   275  GLY275      0.1869
    101  C         19.1570   23.1050   21.0390 C.2   275  GLY275      0.2309
    102  O         18.5020   23.8270   20.2970 O.2   275  GLY275     -0.2863
@<TRIPOS>BOND
     1    60    59    2
     2    57    58    1
     3    59    58    1
     4    59    66   am
     5    51    52    1
     6    76    74    1
     7    58    61    1
     8    61    62    1
     9    73    74    2
    10    73    72    1
    11    67    66    1
    12    67    68    1
    13    67    70    1
    14    74    75    1
    15    53    52    1
    16    53    54    2
    17    52    55    1
    18    71    70    1
    19    71    72    1
    20    68    69    2
    21     9     7   ar
    22     9    10   ar
    23    62    63    1
    24    12    10   ar
    25    12    14   ar
    26     7     6   ar
    27    10     8   ar
    28     1     2    1
    29    55    56    1
    30    14    13   ar
    31    63    64    1
    32     6     8   ar
    33     6     5    1
    34     2     5    1
    35     2     3    1
    36     8    11   ar
    37    13    11   ar
    38    64    65    1
    39     3     4    2
    40    23    24    1
    41    85    83   ar
    42    77    78    1
    43    83    84   ar
    44    83    82    1
    45    82    81    1
    46    24    27    1
    47    24    25    1
    48    27    28    1
    49    92    91   ar
    50    81    78    1
    51    29    28   ar
    52    29    31   ar
    53    80    79    2
    54    93    91   ar
    55    78    79    1
    56    28    30   ar
    57    91    90    1
    58    31    33   ar
    59    25    26    2
    60    30    32   ar
    61    15    16    1
    62    33    32   ar
    63    33    34    1
    64    90    87    1
    65    16    19    1
    66    16    17    1
    67    86    87    1
    68    87    88    1
    69   102   101    2
    70    19    20    1
    71    18    17    2
    72   100   101    1
    73   100    99    1
    74    41    40    1
    75    41    42    1
    76    40    39    1
    77    20    21   ar
    78    20    22   ar
    79    99    96   am
    80    44    43    1
    81    88    89    2
    82    42    43    2
    83    50    47    1
    84    43    45    1
    85    39    36    1
    86    96    95    1
    87    96    97    2
    88    36    37    1
    89    36    35    1
    90    98    95    1
    91    95    94    1
    92    37    38    2
    93    49    48    2
    94    47    48    1
    95    47    46    1
