@<TRIPOS>MOLECULE
tmp/1up2A02.pdb
 119 116 0 0 0
SMALL
GASTEIGER

@<TRIPOS>ATOM
      1  N         12.1780   19.7200   13.9770 N.3    41  TRP41      -0.1241
      2  CA        12.3140   18.5150   14.7980 C.3    41  TRP41       0.1605
      3  C         11.1530   18.3820   15.7940 C.2    41  TRP41       0.2264
      4  O         10.8160   19.3320   16.5280 O.2    41  TRP41      -0.2867
      5  CB        13.6280   18.5300   15.5890 C.3    41  TRP41       0.0550
      6  CG        14.8690   18.3730   14.7710 C.ar   41  TRP41       0.0003
      7  CD1       15.3050   19.2210   13.8050 C.ar   41  TRP41       0.0946
      8  CD2       15.8650   17.3480   14.8730 C.ar   41  TRP41       0.0152
      9  NE1       16.4840   18.7790   13.2710 N.ar   41  TRP41      -0.2442
     10  CE2       16.8740   17.6490   13.9200 C.ar   41  TRP41       0.0810
     11  CE3       16.0270   16.2200   15.6780 C.ar   41  TRP41       0.0012
     12  CZ2       17.9980   16.8810   13.7470 C.ar   41  TRP41       0.0191
     13  CZ3       17.1680   15.4380   15.5020 C.ar   41  TRP41       0.0001
     14  CH2       18.1480   15.7820   14.5540 C.ar   41  TRP41       0.0015
     15  N         12.1140   12.5660   16.2030 N.3    74  TYR74      -0.1241
     16  CA        13.1970   12.2550   17.1350 C.3    74  TYR74       0.1605
     17  C         12.6230   11.9300   18.5190 C.2    74  TYR74       0.2264
     18  O         12.9280   12.5950   19.5070 O.2    74  TYR74      -0.2867
     19  CB        14.2020   13.4340   17.1850 C.3    74  TYR74       0.0534
     20  CG        15.5250   13.1540   17.8330 C.ar   74  TYR74      -0.0201
     21  CD1       16.2690   11.9820   17.5390 C.ar   74  TYR74      -0.0009
     22  CD2       16.1040   14.0960   18.7050 C.ar   74  TYR74      -0.0009
     23  CE1       17.4890   11.7310   18.1500 C.ar   74  TYR74       0.0417
     24  CE2       17.3100   13.8230   19.3460 C.ar   74  TYR74       0.0417
     25  CZ        18.0020   12.6500   19.0600 C.ar   74  TYR74       0.1957
     26  OH        19.2290   12.4310   19.6850 O.3    74  TYR74      -0.2866
     27  N         19.0100    8.5030   22.0210 N.3    80  ASP80      -0.1239
     28  CA        20.4270    8.7900   22.2150 C.3    80  ASP80       0.1674
     29  C         21.1190    7.9010   23.2370 C.2    80  ASP80       0.2266
     30  O         22.2100    8.2500   23.7350 O.2    80  ASP80      -0.2867
     31  CB        20.6380   10.2550   22.6290 C.3    80  ASP80       0.1410
     32  CG        21.9950   10.7770   22.2210 C.2    80  ASP80       0.3668
     33  OD1       22.4920   10.4000   21.1200 O.co2  80  ASP80      -0.2456
     34  OD2       22.6570   11.5480   22.9370 O.co2  80  ASP80      -0.2456
     35  N         23.8930   12.6940   25.6870 N.3    84  TYR84      -0.1227
     36  CA        23.6630   14.1610   25.6950 C.3    84  TYR84       0.1736
     37  C         22.2760   14.5740   25.2450 C.2    84  TYR84       0.2595
     38  O         21.7360   15.6020   25.7240 O.2    84  TYR84      -0.2718
     39  CB        24.7080   14.9010   24.8570 C.3    84  TYR84       0.0548
     40  CG        26.1100   14.6570   25.3580 C.ar   84  TYR84      -0.0200
     41  CD1       26.5180   15.1020   26.6310 C.ar   84  TYR84      -0.0009
     42  CD2       27.0060   13.9370   24.6070 C.ar   84  TYR84      -0.0009
     43  CE1       27.7810   14.8400   27.1130 C.ar   84  TYR84       0.0417
     44  CE2       28.2950   13.6590   25.0840 C.ar   84  TYR84       0.0417
     45  CZ        28.6760   14.1130   26.3150 C.ar   84  TYR84       0.1957
     46  OH        29.9390   13.8170   26.7420 O.3    84  TYR84      -0.2866
     47  N         21.6770   13.7710   24.3680 N.am   85  ALA85      -0.1980
     48  CA        20.3410   14.0830   23.8500 C.3    85  ALA85       0.1597
     49  C         19.2960   13.0980   24.3480 C.2    85  ALA85       0.2287
     50  O         18.3400   12.7810   23.6400 O.2    85  ALA85      -0.2864
     51  CB        20.3680   14.1410   22.2900 C.3    85  ALA85       0.0319
     52  N         16.8530   10.0620   13.5770 N.3   117  PRO117     -0.2102
     53  CA        18.3090   10.1890   13.5730 C.3   117  PRO117      0.1504
     54  C         18.9100    9.2810   14.6320 C.2   117  PRO117      0.2575
     55  O         18.4830    9.3390   15.7760 O.2   117  PRO117     -0.2718
     56  CB        18.5290   11.6760   13.9450 C.3   117  PRO117      0.0282
     57  CG        17.3840   12.3530   13.3070 C.3   117  PRO117      0.0208
     58  CD        16.2000   11.3840   13.5000 C.3   117  PRO117      0.0893
     59  N         19.8680    8.4520   14.2120 N.am  118  ASP118     -0.1974
     60  CA        20.7020    7.6300   15.0670 C.3   118  ASP118      0.1708
     61  C         20.0360    6.3250   15.5430 C.2   118  ASP118      0.2293
     62  O         20.7360    5.4750   16.0500 O.2   118  ASP118     -0.2864
     63  CB        21.2110    8.3420   16.3250 C.3   118  ASP118      0.1436
     64  CG        21.9430    9.6240   16.0420 C.2   118  ASP118      0.3671
     65  OD1       22.5030    9.7850   14.9420 O.co2 118  ASP118     -0.2456
     66  OD2       21.9870   10.5170   16.8890 O.co2 118  ASP118     -0.2456
     67  N         23.3210   12.9880    9.4020 N.3   186  VAL186     -0.1231
     68  CA        22.4930   13.8740   10.2230 C.3   186  VAL186      0.1692
     69  C         23.2600   14.2780   11.4870 C.2   186  VAL186      0.2592
     70  O         23.6900   13.4230   12.2650 O.2   186  VAL186     -0.2718
     71  CB        21.1330   13.2580   10.5970 C.3   186  VAL186      0.0266
     72  CG1       20.3870   14.1360   11.5760 C.3   186  VAL186      0.0020
     73  CG2       20.2920   13.0570    9.3600 C.3   186  VAL186      0.0020
     74  N         23.4330   15.5900   11.6370 N.am  187  SER187     -0.1952
     75  CA        24.1560   16.2250   12.7190 C.3   187  SER187      0.1924
     76  C         25.6280   15.8480   12.7150 C.2   187  SER187      0.2314
     77  O         26.3090   16.0460   13.7080 O.2   187  SER187     -0.2863
     78  CB        23.5550   15.8940   14.0990 C.3   187  SER187      0.2116
     79  OG        22.1440   16.0620   14.1580 O.3   187  SER187     -0.2180
     80  N         32.2340   14.6480   17.0180 N.3   230  TRP230     -0.1241
     81  CA        30.9220   15.0780   16.5230 C.3   230  TRP230      0.1605
     82  C         30.2090   16.0230   17.5320 C.2   230  TRP230      0.2264
     83  O         29.1260   16.5270   17.2530 O.2   230  TRP230     -0.2867
     84  CB        30.0520   13.8340   16.2220 C.3   230  TRP230      0.0550
     85  CG        30.1240   12.8390   17.3420 C.ar  230  TRP230      0.0003
     86  CD1       30.9880   11.7770   17.4360 C.ar  230  TRP230      0.0946
     87  CD2       29.4320   12.9020   18.5980 C.ar  230  TRP230      0.0152
     88  NE1       30.8320   11.1600   18.6470 N.ar  230  TRP230     -0.2442
     89  CE2       29.8750   11.8150   19.3730 C.ar  230  TRP230      0.0810
     90  CE3       28.4270   13.7210   19.1120 C.ar  230  TRP230      0.0012
     91  CZ2       29.3960   11.5540   20.6580 C.ar  230  TRP230      0.0191
     92  CZ3       27.9320   13.4520   20.3750 C.ar  230  TRP230      0.0001
     93  CH2       28.4320   12.3700   21.1390 C.ar  230  TRP230      0.0015
     94  N         20.0180   18.6600   10.7240 N.3   258  LYS258     -0.1245
     95  CA        20.4890   19.3960   11.9070 C.3   258  LYS258      0.1561
     96  C         20.3880   20.8990   11.6230 C.2   258  LYS258      0.2260
     97  O         20.6480   21.3100   10.4960 O.2   258  LYS258     -0.2867
     98  CB        21.9510   19.0230   12.2060 C.3   258  LYS258      0.0271
     99  CG        22.6370   19.8680   13.3010 C.3   258  LYS258      0.0035
    100  CD        22.0910   19.5070   14.7080 C.3   258  LYS258      0.0206
    101  CE        22.6520   20.4350   15.7940 C.3   258  LYS258      0.1093
    102  NZ        21.9670   20.2910   17.1340 N.3   258  LYS258     -0.1314
    103  N         25.1170   20.5180   20.2150 N.3   264  ASP264     -0.1239
    104  CA        25.0750   19.0690   20.2190 C.3   264  ASP264      0.1674
    105  C         24.9690   18.4680   21.6100 C.2   264  ASP264      0.2266
    106  O         24.6920   17.2870   21.7390 O.2   264  ASP264     -0.2867
    107  CB        26.3320   18.4960   19.5560 C.3   264  ASP264      0.1410
    108  CG        26.4680   18.9140   18.1080 C.2   264  ASP264      0.3668
    109  OD1       25.4930   18.7550   17.3380 O.co2 264  ASP264     -0.2456
    110  OD2       27.5210   19.4130   17.6600 O.co2 264  ASP264     -0.2456
    111  N         21.7920   19.9120   24.4130 N.3   274  ALA274     -0.1231
    112  CA        21.5080   19.5430   23.0180 C.3   274  ALA274      0.1694
    113  C         20.2190   20.2230   22.5080 C.2   274  ALA274      0.2592
    114  O         19.1700   20.1510   23.1400 O.2   274  ALA274     -0.2718
    115  CB        21.4180   18.0300   22.8920 C.3   274  ALA274      0.0304
    116  N         20.3300   20.9060   21.3690 N.am  275  GLY275     -0.1957
    117  CA        19.2170   21.6130   20.7800 C.3   275  GLY275      0.1869
    118  C         19.1570   23.1050   21.0390 C.2   275  GLY275      0.2309
    119  O         18.5020   23.8270   20.2970 O.2   275  GLY275     -0.2863
@<TRIPOS>BOND
     1    73    71    1
     2    67    68    1
     3    68    71    1
     4    68    69    1
     5    97    96    2
     6    71    72    1
     7    94    95    1
     8    69    74   am
     9    69    70    2
    10    96    95    1
    11    74    75    1
    12    95    98    1
    13    98    99    1
    14    76    75    1
    15    76    77    2
    16    75    78    1
    17     9     7   ar
    18     9    10   ar
    19    99   100    1
    20    57    58    1
    21    57    56    1
    22    58    52    1
    23    53    52    1
    24    53    56    1
    25    53    54    1
    26    12    10   ar
    27    12    14   ar
    28     7     6   ar
    29    10     8   ar
    30     1     2    1
    31    78    79    1
    32    59    54   am
    33    59    60    1
    34    14    13   ar
    35    54    55    2
    36   100   101    1
    37     6     8   ar
    38     6     5    1
    39     2     5    1
    40     2     3    1
    41     8    11   ar
    42    65    64   ar
    43    60    61    1
    44    60    63    1
    45    13    11   ar
    46    61    62    2
    47   101   102    1
    48     3     4    2
    49    64    63    1
    50    64    66   ar
    51    15    16    1
    52    84    81    1
    53    84    85    1
    54    81    80    1
    55    81    82    1
    56    16    19    1
    57    16    17    1
    58    19    20    1
    59    83    82    2
    60   109   108   ar
    61    85    86   ar
    62    85    87   ar
    63    86    88   ar
    64    21    20   ar
    65    21    23   ar
    66   110   108   ar
    67    20    22   ar
    68   108   107    1
    69    23    25   ar
    70    17    18    2
    71    87    90   ar
    72    87    89   ar
    73    88    89   ar
    74    22    24   ar
    75    25    24   ar
    76    25    26    1
    77    90    92   ar
    78    89    91   ar
    79   107   104    1
    80   103   104    1
    81   104   105    1
    82   119   118    2
    83    92    93   ar
    84    91    93   ar
    85   117   118    1
    86   117   116    1
    87    33    32   ar
    88   116   113   am
    89   105   106    2
    90    27    28    1
    91    28    31    1
    92    28    29    1
    93    32    31    1
    94    32    34   ar
    95    51    48    1
    96   113   112    1
    97   113   114    2
    98   115   112    1
    99   112   111    1
   100    29    30    2
   101    50    49    2
   102    48    49    1
   103    48    47    1
   104    47    37   am
   105    42    44   ar
   106    42    40   ar
   107    39    40    1
   108    39    36    1
   109    44    45   ar
   110    37    36    1
   111    37    38    2
   112    40    41   ar
   113    35    36    1
   114    45    46    1
   115    45    43   ar
   116    41    43   ar
