@<TRIPOS>MOLECULE
tmp/1up3A02.pdb
 90 87 0 0 0
SMALL
GASTEIGER

@<TRIPOS>ATOM
      1  N         29.7750   19.4620   19.2850 N.3   234  ASN234     -0.1226
      2  CA        30.1810   20.8730   19.1410 C.3   234  ASN234      0.1770
      3  C         31.6600   21.0880   18.7600 C.2   234  ASN234      0.2439
      4  O         32.3490   21.8790   19.4160 O.2   234  ASN234     -0.2733
      5  CB        29.9020   21.6420   20.4340 C.3   234  ASN234      0.1168
      6  CG        28.4160   21.7170   20.7890 C.2   234  ASN234      0.2627
      7  OD1       27.5650   21.7760   19.8940 O.2   234  ASN234     -0.2716
      8  ND2       28.0930   21.7390   22.0950 N.am  234  ASN234     -0.0877
      9  N         32.1680   20.4460   17.7120 N.am  235  PRO235     -0.2718
     10  CA        33.5560   20.7090   17.2930 C.3   235  PRO235      0.1535
     11  C         33.7570   22.1210   16.7710 C.2   235  PRO235      0.2599
     12  O         32.8890   22.7160   16.1740 O.2   235  PRO235     -0.2715
     13  CB        33.7910   19.7090   16.1790 C.3   235  PRO235      0.0310
     14  CG        32.3830   19.4800   15.6140 C.3   235  PRO235      0.0237
     15  CD        31.4760   19.5170   16.8040 C.3   235  PRO235      0.0939
     16  N         34.9590   22.6370   16.9870 N.am  236  SER236     -0.1936
     17  CA        35.3230   23.8870   16.3590 C.3   236  SER236      0.2055
     18  C         35.8720   23.6410   14.9500 C.2   236  SER236      0.2644
     19  O         36.1520   22.5080   14.5410 O.2   236  SER236     -0.2714
     20  CB        36.3270   24.6330   17.2350 C.3   236  SER236      0.2130
     21  OG        37.5260   23.8940   17.3020 O.3   236  SER236     -0.2179
     22  N         36.0020   24.7320   14.1980 N.am  237  GLY237     -0.1939
     23  CA        36.5960   24.7230   12.8680 C.3   237  GLY237      0.2014
     24  C         35.7650   24.1110   11.7430 C.2   237  GLY237      0.2638
     25  O         36.2810   23.8430   10.6490 O.2   237  GLY237     -0.2714
     26  N         34.4890   23.8450   12.0140 N.am  238  ARG238     -0.1977
     27  CA        33.5730   23.2990   11.0100 C.3   238  ARG238      0.1597
     28  C         32.9040   24.4440   10.2510 C.2   238  ARG238      0.2287
     29  O         32.7970   25.5450   10.7540 O.2   238  ARG238     -0.2864
     30  CB        32.5010   22.4090   11.6550 C.3   238  ARG238      0.0334
     31  CG        33.0340   21.2500   12.5070 C.3   238  ARG238      0.0492
     32  CD        34.1110   20.3940   11.8680 C.3   238  ARG238      0.2205
     33  NE        35.4340   20.8460   12.2330 N.pl3 238  ARG238     -0.0865
     34  CZ        36.5290   20.7630   11.4740 C.cat 238  ARG238      0.5346
     35  NH1       36.5260   20.3140   10.2270 N.pl3 238  ARG238      0.1354
     36  NH2       37.6650   21.1840   11.9830 N.pl3 238  ARG238      0.1354
     37  N         28.8240   22.8360   27.9680 N.3   273  GLU273     -0.1245
     38  CA        28.1980   23.5760   26.8500 C.3   273  GLU273      0.1567
     39  C         26.6780   23.5060   26.9310 C.2   273  GLU273      0.2260
     40  O         26.1290   22.7910   27.7830 O.2   273  GLU273     -0.2867
     41  CB        28.7640   23.0830   25.5110 C.3   273  GLU273      0.0388
     42  CG        30.1960   23.5810   25.3710 C.3   273  GLU273      0.1160
     43  CD        31.0290   22.9390   24.3110 C.2   273  GLU273      0.3649
     44  OE1       30.6270   21.9040   23.7340 O.co2 273  GLU273     -0.2457
     45  OE2       32.1410   23.4920   24.0590 O.co2 273  GLU273     -0.2457
     46  N         26.4730   32.2990   18.5730 N.3   282  GLN282     -0.1231
     47  CA        27.8960   32.2100   18.2950 C.3   282  GLN282      0.1698
     48  C         28.2370   30.9730   17.4720 C.2   282  GLN282      0.2592
     49  O         29.0940   31.0260   16.6170 O.2   282  GLN282     -0.2718
     50  CB        28.7180   32.2070   19.6020 C.3   282  GLN282      0.0381
     51  CG        30.2180   32.1860   19.3490 C.3   282  GLN282      0.0905
     52  CD        30.6830   33.5100   18.8720 C.2   282  GLN282      0.2608
     53  OE1       30.4910   34.5080   19.5760 O.2   282  GLN282     -0.2717
     54  NE2       31.2270   33.5770   17.6470 N.am  282  GLN282     -0.0878
     55  N         27.5930   29.8490   17.7610 N.am  283  TYR283     -0.1976
     56  CA        27.8240   28.6270   16.9960 C.3   283  TYR283      0.1639
     57  C         27.4090   28.7980   15.5330 C.2   283  TYR283      0.2290
     58  O         28.1800   28.4060   14.6160 O.2   283  TYR283     -0.2864
     59  CB        27.0860   27.4410   17.5990 C.3   283  TYR283      0.0560
     60  CG        27.6800   26.8610   18.8850 C.ar  283  TYR283     -0.0198
     61  CD1       28.7510   27.4590   19.5440 C.ar  283  TYR283     -0.0009
     62  CD2       27.0600   25.7970   19.4830 C.ar  283  TYR283     -0.0009
     63  CE1       29.2450   26.9250   20.7140 C.ar  283  TYR283      0.0417
     64  CE2       27.5500   25.2290   20.6720 C.ar  283  TYR283      0.0417
     65  CZ        28.6470   25.7930   21.2600 C.ar  283  TYR283      0.1957
     66  OH        29.1540   25.2540   22.4460 O.3   283  TYR283     -0.2866
     67  N         29.9810   31.1790   13.8760 N.3   286  ASP286     -0.1225
     68  CA        31.2560   30.5230   13.5820 C.3   286  ASP286      0.1805
     69  C         31.1650   29.5670   12.3650 C.2   286  ASP286      0.2597
     70  O         32.0520   29.5540   11.4990 O.2   286  ASP286     -0.2718
     71  CB        31.8030   29.7960   14.8080 C.3   286  ASP286      0.1424
     72  CG        32.2110   30.7580   15.9590 C.2   286  ASP286      0.3668
     73  OD1       32.2930   31.9960   15.7770 O.co2 286  ASP286     -0.2456
     74  OD2       32.4710   30.3420   17.0980 O.co2 286  ASP286     -0.2456
     75  N         30.0870   28.7750   12.2960 N.am  287  LEU287     -0.1979
     76  CA        29.8750   27.9090   11.1340 C.3   287  LEU287      0.1596
     77  C         29.8250   28.7140    9.8280 C.2   287  LEU287      0.2287
     78  O         30.4230   28.3170    8.8380 O.2   287  LEU287     -0.2864
     79  CB        28.5830   27.0980   11.2780 C.3   287  LEU287      0.0297
     80  CG        28.6780   25.9680   12.3190 C.3   287  LEU287      0.0022
     81  CD1       27.2980   25.5470   12.7240 C.3   287  LEU287      0.0001
     82  CD2       29.4450   24.7450   11.7830 C.3   287  LEU287      0.0001
     83  N         33.3530   30.3370    9.0720 N.3   290  ASN290     -0.1240
     84  CA        34.2680   29.3400    8.5470 C.3   290  ASN290      0.1653
     85  C         33.9630   28.9570    7.1030 C.2   290  ASN290      0.2266
     86  O         34.8480   28.4420    6.4090 O.2   290  ASN290     -0.2867
     87  CB        34.2870   28.1030    9.4540 C.3   290  ASN290      0.1155
     88  CG        34.8750   28.4000   10.8560 C.2   290  ASN290      0.2627
     89  OD1       35.5790   29.4140   11.0580 O.2   290  ASN290     -0.2716
     90  ND2       34.5940   27.5170   11.8150 N.am  290  ASN290     -0.0877
@<TRIPOS>BOND
     1    86    85    2
     2    85    84    1
     3    84    83    1
     4    84    87    1
     5    78    77    2
     6    87    88    1
     7    77    76    1
     8    35    34    1
     9    28    29    2
    10    28    27    1
    11    25    24    2
    12    88    89    2
    13    88    90   am
    14    27    30    1
    15    27    26    1
    16    76    79    1
    17    76    75    1
    18    79    80    1
    19    34    36    1
    20    34    33    2
    21    70    69    2
    22    30    31    1
    23    24    26   am
    24    24    23    1
    25    82    80    1
    26    32    33    1
    27    32    31    1
    28    75    69   am
    29    80    81    1
    30    69    68    1
    31    23    22    1
    32    68    67    1
    33    68    71    1
    34    22    18   am
    35    19    18    2
    36    58    57    2
    37    71    72    1
    38    18    17    1
    39    57    56    1
    40    14    13    1
    41    14    15    1
    42    73    72   ar
    43    72    74   ar
    44    12    11    2
    45    13    10    1
    46    17    16    1
    47    17    20    1
    48    49    48    2
    49    11    16   am
    50    11    10    1
    51    15     9    1
    52    56    59    1
    53    56    55    1
    54    20    21    1
    55    10     9    1
    56    48    55   am
    57    48    47    1
    58    59    60    1
    59    54    52   am
    60     9     3   am
    61    47    46    1
    62    47    50    1
    63     3     2    1
    64     3     4    2
    65    52    51    1
    66    52    53    2
    67    60    62   ar
    68    60    61   ar
    69     2     1    1
    70     2     5    1
    71    51    50    1
    72    62    64   ar
    73    61    63   ar
    74     7     6    2
    75     5     6    1
    76    64    65   ar
    77    63    65   ar
    78     6     8   am
    79    65    66    1
    80    44    43   ar
    81    45    43   ar
    82    43    42    1
    83    42    41    1
    84    41    38    1
    85    38    39    1
    86    38    37    1
    87    39    40    2
