@<TRIPOS>MOLECULE
tmp/1up3A01.pdb
 157 154 0 0 0
SMALL
GASTEIGER

@<TRIPOS>ATOM
      1  N         12.1030   12.5650   16.1670 N.3    75  TYR75      -0.1241
      2  CA        13.2040   12.2310   17.0870 C.3    75  TYR75       0.1605
      3  C         12.6260   11.9070   18.4680 C.2    75  TYR75       0.2264
      4  O         12.8990   12.6020   19.4540 O.2    75  TYR75      -0.2867
      5  CB        14.1910   13.4140   17.1200 C.3    75  TYR75       0.0534
      6  CG        15.5560   13.1820   17.7520 C.ar   75  TYR75      -0.0201
      7  CD1       16.3030   12.0670   17.4030 C.ar   75  TYR75      -0.0009
      8  CD2       16.0990   14.1060   18.6230 C.ar   75  TYR75      -0.0009
      9  CE1       17.5750   11.8300   17.9430 C.ar   75  TYR75       0.0417
     10  CE2       17.3720   13.9190   19.1750 C.ar   75  TYR75       0.0417
     11  CZ        18.1140   12.7960   18.8120 C.ar   75  TYR75       0.1957
     12  OH        19.3740   12.5940   19.3710 O.3    75  TYR75      -0.2866
     13  N         19.0980    8.4150   22.0970 N.3    81  ASP81      -0.1239
     14  CA        20.4870    8.7200   22.3270 C.3    81  ASP81       0.1674
     15  C         21.1330    7.8130   23.3680 C.2    81  ASP81       0.2266
     16  O         22.2070    8.1370   23.8770 O.2    81  ASP81      -0.2867
     17  CB        20.6580   10.1870   22.7210 C.3    81  ASP81       0.1410
     18  CG        21.9360   10.7730   22.2230 C.2    81  ASP81       0.3668
     19  OD1       22.3290   10.5080   21.0400 O.co2  81  ASP81      -0.2456
     20  OD2       22.6790   11.4840   22.9660 O.co2  81  ASP81      -0.2456
     21  N         22.4000    9.5260   26.5670 N.3    84  SER84      -0.1202
     22  CA        23.5430   10.4550   26.5010 C.3    84  SER84       0.2020
     23  C         23.0380   11.9150   26.3970 C.2    84  SER84       0.2619
     24  O         21.9570   12.2430   26.8930 O.2    84  SER84      -0.2717
     25  CB        24.4710   10.0420   25.3550 C.3    84  SER84       0.2103
     26  OG        25.6500   10.8340   25.3000 O.3    84  SER84      -0.2182
     27  N         23.8160   12.7950   25.7680 N.am   85  TYR85      -0.1961
     28  CA        23.5550   14.2440   25.8030 C.3    85  TYR85       0.1771
     29  C         22.1830   14.6280   25.2630 C.2    85  TYR85       0.2619
     30  O         21.5570   15.5670   25.7420 O.2    85  TYR85      -0.2715
     31  CB        24.6250   15.0060   25.0360 C.3    85  TYR85       0.0574
     32  CG        26.0250   14.7580   25.5430 C.ar   85  TYR85      -0.0198
     33  CD1       26.3580   15.0520   26.8560 C.ar   85  TYR85      -0.0009
     34  CD2       26.9800   14.1710   24.7440 C.ar   85  TYR85      -0.0009
     35  CE1       27.5980   14.8170   27.3240 C.ar   85  TYR85       0.0417
     36  CE2       28.2450   13.9200   25.2230 C.ar   85  TYR85       0.0417
     37  CZ        28.5510   14.2570   26.5190 C.ar   85  TYR85       0.1957
     38  OH        29.8120   14.0030   27.0150 O.3    85  TYR85      -0.2866
     39  N         21.6870   13.8460   24.3210 N.am   86  ALA86      -0.1977
     40  CA        20.3690   14.1000   23.7490 C.3    86  ALA86       0.1597
     41  C         19.3010   13.1130   24.2300 C.2    86  ALA86       0.2287
     42  O         18.3460   12.8190   23.5100 O.2    86  ALA86      -0.2864
     43  CB        20.4680   14.0980   22.1890 C.3    86  ALA86       0.0319
     44  N         19.8390    8.4750   14.1560 N.3   119  ASP119     -0.1239
     45  CA        20.6880    7.6470   15.0430 C.3   119  ASP119      0.1674
     46  C         20.0400    6.3710   15.5060 C.2   119  ASP119      0.2266
     47  O         20.7440    5.5270   16.0380 O.2   119  ASP119     -0.2867
     48  CB        21.1770    8.3700   16.3030 C.3   119  ASP119      0.1410
     49  CG        21.8580    9.6920   16.0410 C.2   119  ASP119      0.3668
     50  OD1       22.4260    9.9000   14.9430 O.co2 119  ASP119     -0.2456
     51  OD2       21.8770   10.5730   16.9480 O.co2 119  ASP119     -0.2456
     52  N         22.5880    3.4130   16.3420 N.3   123  MET123     -0.1245
     53  CA        22.9550    3.3610   17.7620 C.3   123  MET123      0.1570
     54  C         22.3150    2.1720   18.4920 C.2   123  MET123      0.2261
     55  O         22.5600    1.9760   19.6740 O.2   123  MET123     -0.2867
     56  CB        22.6070    4.6730   18.4740 C.3   123  MET123      0.0387
     57  CG        23.5120    4.9550   19.6730 C.3   123  MET123      0.0595
     58  SD        22.9560    6.3860   20.6060 S.3   123  MET123     -0.1393
     59  CE        23.3230    7.5650   19.4830 C.3   123  MET123      0.0692
     60  N         26.0100    7.2100    9.2340 N.3   160  HIS160     -0.1241
     61  CA        27.0060    7.8620    8.3660 C.3   160  HIS160      0.1621
     62  C         28.1210    6.9070    8.0320 C.2   160  HIS160      0.2264
     63  O         28.1850    5.8180    8.5780 O.2   160  HIS160     -0.2867
     64  CB        27.5100    9.1790    8.9790 C.3   160  HIS160      0.0745
     65  CG        28.2150    9.0230   10.2760 C.ar  160  HIS160      0.0817
     66  ND1       29.4080    8.3310   10.4030 N.ar  160  HIS160     -0.2268
     67  CD2       27.8970    9.4720   11.5190 C.ar  160  HIS160      0.1154
     68  CE1       29.7760    8.3590   11.6730 C.ar  160  HIS160      0.1986
     69  NE2       28.8690    9.0300   12.3730 N.ar  160  HIS160     -0.2212
     70  N         31.1400    6.5170    8.7390 N.3   162  ARG162     -0.1231
     71  CA        32.1260    6.0760    9.7360 C.3   162  ARG162      0.1694
     72  C         31.4590    5.4390   10.9680 C.2   162  ARG162      0.2592
     73  O         32.0550    5.3440   12.0330 O.2   162  ARG162     -0.2718
     74  CB        33.0440    7.2140   10.1590 C.3   162  ARG162      0.0321
     75  CG        33.7120    7.8680    9.0110 C.3   162  ARG162      0.0489
     76  CD        35.1560    7.5530    8.7730 C.3   162  ARG162      0.2205
     77  NE        35.6290    8.4530    7.7040 N.pl3 162  ARG162     -0.0865
     78  CZ        36.4300    9.5190    7.8710 C.cat 162  ARG162      0.5346
     79  NH1       36.9410    9.8620    9.0600 N.pl3 162  ARG162      0.1354
     80  NH2       36.7630   10.2430    6.8240 N.pl3 162  ARG162      0.1354
     81  N         30.2140    5.0260   10.8030 N.am  163  TRP163     -0.1976
     82  CA        29.4430    4.4480   11.8950 C.3   163  TRP163      0.1640
     83  C         29.3000    2.9580   11.6070 C.2   163  TRP163      0.2290
     84  O         30.2720    2.2180   11.8310 O.2   163  TRP163     -0.2864
     85  CB        28.1290    5.2040   12.1000 C.3   163  TRP163      0.0576
     86  CG        27.5470    5.0190   13.4520 C.ar  163  TRP163      0.0006
     87  CD1       27.7910    3.9930   14.3420 C.ar  163  TRP163      0.0946
     88  CD2       26.6350    5.8970   14.1090 C.ar  163  TRP163      0.0152
     89  NE1       27.0760    4.1940   15.5010 N.ar  163  TRP163     -0.2442
     90  CE2       26.3580    5.3500   15.3830 C.ar  163  TRP163      0.0810
     91  CE3       26.0170    7.1040   13.7460 C.ar  163  TRP163      0.0012
     92  CZ2       25.4800    5.9710   16.2810 C.ar  163  TRP163      0.0191
     93  CZ3       25.1410    7.6920   14.6280 C.ar  163  TRP163      0.0001
     94  CH2       24.8850    7.1250   15.8740 C.ar  163  TRP163      0.0015
     95  N         23.3040   13.0110    9.4070 N.3   188  VAL188     -0.1231
     96  CA        22.4760   13.9050   10.1990 C.3   188  VAL188      0.1692
     97  C         23.2300   14.3430   11.4660 C.2   188  VAL188      0.2593
     98  O         23.7110   13.5140   12.2500 O.2   188  VAL188     -0.2718
     99  CB        21.0560   13.3000   10.5260 C.3   188  VAL188      0.0266
    100  CG1       20.2920   14.2250   11.4840 C.3   188  VAL188      0.0020
    101  CG2       20.2780   13.0430    9.2660 C.3   188  VAL188      0.0020
    102  N         23.3280   15.6490   11.6580 N.am  189  SER189     -0.1938
    103  CA        24.0760   16.2290   12.7340 C.3   189  SER189      0.2055
    104  C         25.5530   15.9320   12.7220 C.2   189  SER189      0.2643
    105  O         26.1940   16.1600   13.7310 O.2   189  SER189     -0.2714
    106  CB        23.4650   15.8800   14.1040 C.3   189  SER189      0.2130
    107  OG        22.0910   16.1710   14.1050 O.3   189  SER189     -0.2179
    108  N         26.0900   15.4250   11.6260 N.am  190  ASN190     -0.1971
    109  CA        27.5400   15.1730   11.5660 C.3   190  ASN190      0.1688
    110  C         28.1880   16.0340   10.4860 C.2   190  ASN190      0.2292
    111  O         27.6030   17.0010   10.0340 O.2   190  ASN190     -0.2864
    112  CB        27.7970   13.6780   11.4460 C.3   190  ASN190      0.1181
    113  CG        29.0360   13.2570   12.1880 C.2   190  ASN190      0.2629
    114  OD1       30.1320   13.7200   11.8730 O.2   190  ASN190     -0.2716
    115  ND2       28.8770   12.3620   13.1880 N.am  190  ASN190     -0.0877
    116  N         30.7810   14.7620    7.9470 N.3   192  TYR192     -0.1241
    117  CA        31.5620   14.1040    6.9070 C.3   192  TYR192      0.1605
    118  C         31.2850   14.7340    5.5390 C.2   192  TYR192      0.2264
    119  O         30.2070   15.2290    5.2980 O.2   192  TYR192     -0.2867
    120  CB        31.3300   12.5920    6.9150 C.3   192  TYR192      0.0534
    121  CG        31.7850   11.9730    8.2000 C.ar  192  TYR192     -0.0201
    122  CD1       33.1380   11.8380    8.4540 C.ar  192  TYR192     -0.0009
    123  CD2       30.8760   11.6190    9.2080 C.ar  192  TYR192     -0.0009
    124  CE1       33.5880   11.3380    9.6640 C.ar  192  TYR192      0.0417
    125  CE2       31.3290   11.1300   10.4290 C.ar  192  TYR192      0.0417
    126  CZ        32.6620   11.0060   10.6500 C.ar  192  TYR192      0.1957
    127  OH        33.1110   10.5260   11.8710 O.3   192  TYR192     -0.2866
    128  N         34.3230   14.0000   18.7260 N.3   231  ASN231     -0.1225
    129  CA        34.5920   14.9230   17.6070 C.3   231  ASN231      0.1785
    130  C         33.3360   15.4210   16.8730 C.2   231  ASN231      0.2597
    131  O         33.4120   16.3930   16.1070 O.2   231  ASN231     -0.2718
    132  CB        35.6690   14.3770   16.6450 C.3   231  ASN231      0.1169
    133  CG        35.1840   13.2630   15.7740 C.2   231  ASN231      0.2627
    134  OD1       34.2710   12.5040   16.1320 O.2   231  ASN231     -0.2716
    135  ND2       35.7890   13.1410   14.5830 N.am  231  ASN231     -0.0877
    136  N         32.1930   14.8010   17.1740 N.am  232  TRP232     -0.1976
    137  CA        30.8780   15.1710   16.6350 C.3   232  TRP232      0.1640
    138  C         30.1230   16.0970   17.5910 C.2   232  TRP232      0.2290
    139  O         29.0340   16.5540   17.2650 O.2   232  TRP232     -0.2864
    140  CB        30.0410   13.8970   16.3730 C.3   232  TRP232      0.0576
    141  CG        30.0900   12.9730   17.5650 C.ar  232  TRP232      0.0006
    142  CD1       30.9670   11.9310   17.7460 C.ar  232  TRP232      0.0946
    143  CD2       29.3580   13.0870   18.7930 C.ar  232  TRP232      0.0152
    144  NE1       30.7710   11.3540   18.9760 N.ar  232  TRP232     -0.2442
    145  CE2       29.7950   12.0370   19.6390 C.ar  232  TRP232      0.0810
    146  CE3       28.3360   13.9250   19.2500 C.ar  232  TRP232      0.0012
    147  CZ2       29.2560   11.8190   20.9160 C.ar  232  TRP232      0.0191
    148  CZ3       27.8090   13.7120   20.5150 C.ar  232  TRP232      0.0001
    149  CH2       28.2970   12.6720   21.3390 C.ar  232  TRP232      0.0015
    150  N         25.0570   20.5120   20.2670 N.3   266  ASP266     -0.1239
    151  CA        24.9910   19.0570   20.2210 C.3   266  ASP266      0.1674
    152  C         24.8190   18.4550   21.6200 C.2   266  ASP266      0.2266
    153  O         24.5440   17.2440   21.7470 O.2   266  ASP266     -0.2867
    154  CB        26.2230   18.4720   19.5350 C.3   266  ASP266      0.1410
    155  CG        26.3620   18.9260   18.1030 C.2   266  ASP266      0.3668
    156  OD1       25.3640   18.7690   17.3610 O.co2 266  ASP266     -0.2456
    157  OD2       27.4240   19.4450   17.6580 O.co2 266  ASP266     -0.2456
@<TRIPOS>BOND
     1   119   118    2
     2   118   117    1
     3    80    78    1
     4   117   120    1
     5   117   116    1
     6   120   121    1
     7    77    78    2
     8    77    76    1
     9    78    79    1
    10    62    61    1
    11    62    63    2
    12   121   122   ar
    13   121   123   ar
    14    61    64    1
    15    61    60    1
    16   122   124   ar
    17    70    71    1
    18    76    75    1
    19    64    65    1
    20    75    74    1
    21   123   125   ar
    22   101    99    1
    23    95    96    1
    24   124   126   ar
    25    71    74    1
    26    71    72    1
    27   111   110    2
    28    96    99    1
    29    96    97    1
    30    65    66   ar
    31    65    67   ar
    32    66    68   ar
    33   125   126   ar
    34   110   109    1
    35    99   100    1
    36   126   127    1
    37    81    72   am
    38    81    82    1
    39    72    73    2
    40   112   109    1
    41   112   113    1
    42    97   102   am
    43    97    98    2
    44    67    69   ar
    45   109   108    1
    46    83    84    2
    47    83    82    1
    48   108   104   am
    49   102   103    1
    50    68    69   ar
    51   114   113    2
    52    82    85    1
    53    85    86    1
    54   113   115   am
    55   104   103    1
    56   104   105    2
    57   103   106    1
    58    86    88   ar
    59    86    87   ar
    60    91    88   ar
    61    91    93   ar
    62   106   107    1
    63    88    90   ar
    64    44    45    1
    65    87    89   ar
    66   135   133   am
    67    93    94   ar
    68    50    49   ar
    69    45    46    1
    70    45    48    1
    71    90    89   ar
    72    90    92   ar
    73    46    47    2
    74   133   134    2
    75   133   132    1
    76    94    92   ar
    77    49    48    1
    78    49    51   ar
    79   131   130    2
    80     1     2    1
    81    52    53    1
    82   140   137    1
    83   140   141    1
    84   137   136    1
    85   137   138    1
    86   132   129    1
    87   130   136   am
    88   130   129    1
    89     2     5    1
    90     2     3    1
    91     5     6    1
    92   139   138    2
    93   156   155   ar
    94     7     6   ar
    95     7     9   ar
    96   141   142   ar
    97   141   143   ar
    98   129   128    1
    99   157   155   ar
   100   142   144   ar
   101     6     8   ar
   102    53    56    1
   103    53    54    1
   104     9    11   ar
   105   155   154    1
   106     3     4    2
   107    56    57    1
   108    54    55    2
   109     8    10   ar
   110   143   146   ar
   111   143   145   ar
   112    11    10   ar
   113    11    12    1
   114   144   145   ar
   115   146   148   ar
   116    59    58    1
   117   154   151    1
   118   145   147   ar
   119    57    58    1
   120   151   150    1
   121   151   152    1
   122   148   149   ar
   123   147   149   ar
   124    19    18   ar
   125   152   153    2
   126    13    14    1
   127    43    40    1
   128    18    17    1
   129    18    20   ar
   130    14    17    1
   131    14    15    1
   132    15    16    2
   133    42    41    2
   134    40    41    1
   135    40    39    1
   136    39    29   am
   137    34    36   ar
   138    34    32   ar
   139    31    32    1
   140    31    28    1
   141    36    37   ar
   142    29    30    2
   143    29    28    1
   144    26    25    1
   145    25    22    1
   146    32    33   ar
   147    27    28    1
   148    27    23   am
   149    23    22    1
   150    23    24    2
   151    22    21    1
   152    37    38    1
   153    37    35   ar
   154    33    35   ar
