@<TRIPOS>MOLECULE
tmp/1up7A01.pdb
 160 151 0 0 0
SMALL
GASTEIGER

@<TRIPOS>ATOM
      1  N        158.3510   65.0940   97.2350 N.3    14  TYR14      -0.1241
      2  CA       158.5530   63.9130   98.0880 C.3    14  TYR14       0.1605
      3  C        159.4260   62.8210   97.4470 C.2    14  TYR14       0.2264
      4  O        159.8130   61.8500   98.1440 O.2    14  TYR14      -0.2867
      5  CB       157.2240   63.2450   98.4980 C.3    14  TYR14       0.0534
      6  CG       156.2510   64.0640   99.2930 C.ar   14  TYR14      -0.0201
      7  CD1      156.4560   64.3400  100.6530 C.ar   14  TYR14      -0.0009
      8  CD2      155.0820   64.5370   98.6930 C.ar   14  TYR14      -0.0009
      9  CE1      155.5070   65.0960  101.3780 C.ar   14  TYR14       0.0417
     10  CE2      154.1480   65.2820   99.3980 C.ar   14  TYR14       0.0417
     11  CZ       154.3590   65.5510  100.7340 C.ar   14  TYR14       0.1957
     12  OH       153.3840   66.2750  101.3920 O.3    14  TYR14      -0.2866
     13  N        149.7810   65.0370   90.8450 N.3    82  ARG82      -0.1245
     14  CA       148.6290   65.8110   91.2600 C.3    82  ARG82       0.1563
     15  C        147.9230   66.3570   90.0240 C.2    82  ARG82       0.2260
     16  O        148.4120   67.2950   89.4130 O.2    82  ARG82      -0.2867
     17  CB       149.0760   66.9610   92.1580 C.3    82  ARG82       0.0307
     18  CG       147.9500   67.7500   92.8310 C.3    82  ARG82       0.0489
     19  CD       148.4570   68.9690   93.6010 C.3    82  ARG82       0.2205
     20  NE       149.3110   68.5950   94.7200 N.pl3  82  ARG82      -0.0865
     21  CZ       148.8550   68.1630   95.8970 C.cat  82  ARG82       0.5346
     22  NH1      147.5350   68.0610   96.1210 N.pl3  82  ARG82       0.1354
     23  NH2      149.7130   67.8390   96.8440 N.pl3  82  ARG82       0.1354
     24  N        144.4090   72.4180   93.4780 N.3    89  ARG89      -0.1245
     25  CA       144.2190   72.2800   94.9200 C.3    89  ARG89       0.1563
     26  C        143.6730   73.6020   95.4990 C.2    89  ARG89       0.2260
     27  O        142.7500   73.5920   96.3250 O.2    89  ARG89      -0.2867
     28  CB       145.5550   71.8720   95.5410 C.3    89  ARG89       0.0307
     29  CG       145.4480   71.3470   96.9480 C.3    89  ARG89       0.0489
     30  CD       146.7740   71.2490   97.6280 C.3    89  ARG89       0.2205
     31  NE       146.6310   71.1470   99.0650 N.pl3  89  ARG89      -0.0865
     32  CZ       147.5540   70.6230   99.8610 C.cat  89  ARG89       0.5346
     33  NH1      148.7040   70.1670   99.3450 N.pl3  89  ARG89       0.1354
     34  NH2      147.3400   70.5660  101.1690 N.pl3  89  ARG89       0.1354
     35  N        138.7970   71.6020  101.4830 N.3   104  GLN104     -0.1231
     36  CA       139.9140   70.7470  101.8610 C.3   104  GLN104      0.1698
     37  C        140.4010   69.8990  100.6790 C.2   104  GLN104      0.2592
     38  O        139.6220   69.4770   99.8240 O.2   104  GLN104     -0.2718
     39  CB       139.5080   69.8770  103.0570 C.3   104  GLN104      0.0381
     40  CG       140.6680   69.5480  104.0380 C.3   104  GLN104      0.0905
     41  CD       141.4660   68.3390  103.5240 C.2   104  GLN104      0.2608
     42  OE1      140.9280   67.4630  102.8140 O.2   104  GLN104     -0.2717
     43  NE2      142.7350   68.3090  103.8430 N.am  104  GLN104     -0.0878
     44  N        141.6970   69.6660  100.6210 N.am  105  GLU105     -0.1979
     45  CA       142.3100   68.8960   99.5310 C.3   105  GLU105      0.1602
     46  C        141.6010   67.5670   99.1530 C.2   105  GLU105      0.2287
     47  O        141.3950   67.3010   97.9440 O.2   105  GLU105     -0.2864
     48  CB       143.8130   68.6660   99.8370 C.3   105  GLU105      0.0415
     49  CG       144.5230   67.7950   98.7980 C.3   105  GLU105      0.1163
     50  CD       145.7920   67.1170   99.2960 C.2   105  GLU105      0.3649
     51  OE1      145.8550   66.6830  100.4830 O.co2 105  GLU105     -0.2457
     52  OE2      146.7430   67.0000   98.4830 O.co2 105  GLU105     -0.2457
     53  N        145.7070   61.7590   95.3350 N.3   142  ASN142     -0.1240
     54  CA       144.4600   61.9490   96.0530 C.3   142  ASN142      0.1653
     55  C        143.3170   62.3950   95.1650 C.2   142  ASN142      0.2266
     56  O        143.5620   63.0140   94.1430 O.2   142  ASN142     -0.2867
     57  CB       144.6560   62.8190   97.2810 C.3   142  ASN142      0.1155
     58  CG       145.0630   61.9910   98.5010 C.2   142  ASN142      0.2627
     59  OD1      144.4710   60.9110   98.7830 O.2   142  ASN142     -0.2716
     60  ND2      146.0840   62.4630   99.2090 N.am  142  ASN142     -0.0877
     61  N        147.9000   55.4830  101.6660 N.3   164  CYS164     -0.1221
     62  CA       147.8240   56.7750  102.3370 C.3   164  CYS164      0.1808
     63  C        148.7840   56.6420  103.5190 C.2   164  CYS164      0.2601
     64  O        149.2360   55.5150  103.8100 O.2   164  CYS164     -0.2717
     65  CB       146.3610   57.0370  102.7330 C.3   164  CYS164      0.0970
     66  SG       146.0210   58.2940  103.9830 S.3   164  CYS164     -0.0800
     67  N        149.1320   57.7580  104.1770 N.am  165  ASN165     -0.1960
     68  CA       150.1420   57.7030  105.2520 C.3   165  ASN165      0.1819
     69  C        149.6350   57.6360  106.6910 C.2   165  ASN165      0.2621
     70  O        150.4450   57.4710  107.6020 O.2   165  ASN165     -0.2715
     71  CB       151.2530   58.7860  105.1210 C.3   165  ASN165      0.1195
     72  CG       150.7520   60.2270  105.4200 C.2   165  ASN165      0.2630
     73  OD1      149.5460   60.4910  105.3990 O.2   165  ASN165     -0.2716
     74  ND2      151.6850   61.1570  105.6420 N.am  165  ASN165     -0.0877
     75  N        148.3270   57.7400  106.9260 N.am  166  VAL166     -0.1977
     76  CA       147.8620   57.6970  108.3310 C.3   166  VAL166      0.1596
     77  C        148.0580   56.3640  109.0560 C.2   166  VAL166      0.2287
     78  O        148.4990   56.3710  110.2120 O.2   166  VAL166     -0.2864
     79  CB       146.4560   58.3970  108.6290 C.3   166  VAL166      0.0276
     80  CG1      145.9820   59.3250  107.4640 C.3   166  VAL166      0.0022
     81  CG2      145.3790   57.4060  109.0470 C.3   166  VAL166      0.0022
     82  N        151.7140   56.0980  110.0250 N.3   169  ASN169     -0.1240
     83  CA       152.0300   57.0710  111.0520 C.3   169  ASN169      0.1653
     84  C        151.5000   56.6260  112.3930 C.2   169  ASN169      0.2266
     85  O        152.1940   56.7580  113.3980 O.2   169  ASN169     -0.2867
     86  CB       151.4830   58.4540  110.6820 C.3   169  ASN169      0.1155
     87  CG       152.3680   59.1590  109.6830 C.2   169  ASN169      0.2627
     88  OD1      153.5900   59.0890  109.7780 O.2   169  ASN169     -0.2716
     89  ND2      151.7600   59.8220  108.7060 N.am  169  ASN169     -0.0877
     90  N        141.2230   58.4610  104.7260 N.3   194  HIS194     -0.1241
     91  CA       140.8160   59.7010  105.4090 C.3   194  HIS194      0.1621
     92  C        139.5110   59.6440  106.1570 C.2   194  HIS194      0.2264
     93  O        138.9400   60.6970  106.4510 O.2   194  HIS194     -0.2867
     94  CB       140.7550   60.8710  104.4170 C.3   194  HIS194      0.0745
     95  CG       142.0690   61.1300  103.7710 C.ar  194  HIS194      0.0817
     96  ND1      142.2330   61.2100  102.4070 N.ar  194  HIS194     -0.2268
     97  CD2      143.3090   61.2160  104.3100 C.ar  194  HIS194      0.1154
     98  CE1      143.5140   61.3930  102.1370 C.ar  194  HIS194      0.1986
     99  NE2      144.1870   61.3900  103.2760 N.ar  194  HIS194     -0.2212
    100  N        141.1530   63.3850  110.1380 N.3   240  TYR240     -0.1241
    101  CA       140.2650   63.9530  109.1240 C.3   240  TYR240      0.1605
    102  C        138.7980   63.9370  109.5070 C.2   240  TYR240      0.2264
    103  O        138.0000   64.6340  108.8720 O.2   240  TYR240     -0.2867
    104  CB       140.4230   63.2130  107.8130 C.3   240  TYR240      0.0534
    105  CG       141.6020   63.6790  106.9950 C.ar  240  TYR240     -0.0201
    106  CD1      142.9120   63.2420  107.2940 C.ar  240  TYR240     -0.0009
    107  CD2      141.4140   64.5460  105.9040 C.ar  240  TYR240     -0.0009
    108  CE1      144.0020   63.6790  106.5270 C.ar  240  TYR240      0.0417
    109  CE2      142.4810   64.9980  105.1470 C.ar  240  TYR240      0.0417
    110  CZ       143.7620   64.5640  105.4450 C.ar  240  TYR240      0.1957
    111  OH       144.8190   65.0180  104.6850 O.3   240  TYR240     -0.2866
    112  N        145.8950   76.2260  102.4700 N.3   260  ARG260     -0.1245
    113  CA       146.9850   75.2910  102.5930 C.3   260  ARG260      0.1563
    114  C        147.7660   75.2140  101.2710 C.2   260  ARG260      0.2260
    115  O        148.9980   75.2280  101.2670 O.2   260  ARG260     -0.2867
    116  CB       146.4480   73.9200  102.9390 C.3   260  ARG260      0.0307
    117  CG       147.5290   72.8870  103.1610 C.3   260  ARG260      0.0489
    118  CD       148.5840   73.2390  104.2480 C.3   260  ARG260      0.2205
    119  NE       149.6920   72.2780  104.1750 N.pl3 260  ARG260     -0.0865
    120  CZ       150.9110   72.4730  104.6720 C.cat 260  ARG260      0.5346
    121  NH1      151.2060   73.6050  105.3000 N.pl3 260  ARG260      0.1354
    122  NH2      151.8420   71.5250  104.5320 N.pl3 260  ARG260      0.1354
    123  N        151.7990   75.4840  100.6880 N.3   264  VAL264     -0.1245
    124  CA       152.5560   74.4100  100.0580 C.3   264  VAL264      0.1561
    125  C        153.3420   74.9180   98.8230 C.2   264  VAL264      0.2260
    126  O        154.4550   74.4820   98.5910 O.2   264  VAL264     -0.2867
    127  CB       151.6670   73.2600   99.6620 C.3   264  VAL264      0.0252
    128  CG1      152.4330   72.3140   98.7950 C.3   264  VAL264      0.0019
    129  CG2      151.0790   72.5480  100.9190 C.3   264  VAL264      0.0019
    130  N        155.9770   69.2760  105.0450 N.3   288  ARG288     -0.1231
    131  CA       154.8880   68.6480  104.2970 C.3   288  ARG288      0.1694
    132  C        154.2460   67.5390  105.1570 C.2   288  ARG288      0.2593
    133  O        154.9260   66.9710  106.0420 O.2   288  ARG288     -0.2718
    134  CB       155.4100   68.0750  102.9680 C.3   288  ARG288      0.0321
    135  CG       156.1700   69.0930  102.0630 C.3   288  ARG288      0.0489
    136  CD       155.2930   69.9410  101.1130 C.3   288  ARG288      0.2205
    137  NE       153.9570   69.3960  100.9230 N.pl3 288  ARG288     -0.0865
    138  CZ       153.4720   68.9610   99.7580 C.cat 288  ARG288      0.5346
    139  NH1      154.2090   69.0240   98.6460 N.pl3 288  ARG288      0.1354
    140  NH2      152.2440   68.4520   99.7060 N.pl3 288  ARG288      0.1354
    141  N        152.9560   67.2610  104.9350 N.am  289  GLY289     -0.1942
    142  CA       152.2120   66.3340  105.7830 C.3   289  GLY289      0.2014
    143  C        152.1940   64.9480  105.1730 C.2   289  GLY289      0.2639
    144  O        151.4270   64.0600  105.5980 O.2   289  GLY289     -0.2714
    145  N        153.0430   64.7320  104.1810 N.am  290  GLY290     -0.1954
    146  CA       153.0080   63.4850  103.4360 C.3   290  GLY290      0.1869
    147  C        154.1000   62.5230  103.8660 C.2   290  GLY290      0.2309
    148  O        154.2450   61.4040  103.3430 O.2   290  GLY290     -0.2863
    149  N        154.9220   58.3810  103.6320 N.3   293  TYR293     -0.1241
    150  CA       154.3030   57.7880  102.4500 C.3   293  TYR293      0.1605
    151  C        155.3500   56.8900  101.7950 C.2   293  TYR293      0.2264
    152  O        155.0370   55.7910  101.3270 O.2   293  TYR293     -0.2867
    153  CB       153.9130   58.8850  101.4610 C.3   293  TYR293      0.0534
    154  CG       152.4300   59.2790  101.4100 C.ar  293  TYR293     -0.0201
    155  CD1      151.9200   60.2940  102.2200 C.ar  293  TYR293     -0.0009
    156  CD2      151.5550   58.6850  100.5030 C.ar  293  TYR293     -0.0009
    157  CE1      150.5500   60.6780  102.1470 C.ar  293  TYR293      0.0417
    158  CE2      150.1980   59.0700  100.4270 C.ar  293  TYR293      0.0417
    159  CZ       149.7210   60.0600  101.2420 C.ar  293  TYR293      0.1957
    160  OH       148.3990   60.4360  101.1630 O.3   293  TYR293     -0.2866
@<TRIPOS>BOND
     1    16    15    2
     2    15    14    1
     3    13    14    1
     4    14    17    1
     5    17    18    1
     6    18    19    1
     7    24    25    1
     8    19    20    1
     9    56    55    2
    10    20    21    2
    11    25    26    1
    12    25    28    1
    13    55    54    1
    14    53    54    1
    15    26    27    2
    16    28    29    1
    17    21    22    1
    18    21    23    1
    19    54    57    1
    20    29    30    1
    21     1     2    1
    22    57    58    1
    23     3     2    1
    24     3     4    2
    25    30    31    1
    26    47    46    2
    27     2     5    1
    28    52    50   ar
    29     5     6    1
    30    58    59    2
    31    58    60   am
    32   126   125    2
    33   139   138    1
    34     8     6   ar
    35     8    10   ar
    36   128   127    1
    37    49    50    1
    38    49    48    1
    39   125   124    1
    40    31    32    2
    41    46    45    1
    42     6     7   ar
    43    50    51   ar
    44    33    32    1
    45    10    11   ar
    46    45    48    1
    47    45    44    1
    48   127   124    1
    49   127   129    1
    50   140   138    1
    51   138   137    2
    52    38    37    2
    53    32    34    1
    54   124   123    1
    55   158   156   ar
    56   158   159   ar
    57   156   154   ar
    58    44    37   am
    59     7     9   ar
    60    37    36    1
    61    11     9   ar
    62    11    12    1
    63   137   136    1
    64   136   135    1
    65   160   159    1
    66   159   157   ar
    67   115   114    2
    68   114   113    1
    69   152   151    2
    70   154   153    1
    71   154   155   ar
    72   153   150    1
    73    35    36    1
    74    61    62    1
    75   151   150    1
    76    36    39    1
    77   135   134    1
    78    98    96   ar
    79    98    99   ar
    80   157   155   ar
    81    62    65    1
    82    62    63    1
    83    96    95   ar
    84   150   149    1
    85   112   113    1
    86   113   116    1
    87    65    66    1
    88    42    41    2
    89   116   117    1
    90   134   131    1
    91    39    40    1
    92   117   118    1
    93    99    97   ar
    94   148   147    2
    95   146   147    1
    96   146   145    1
    97    63    64    2
    98    63    67   am
    99    41    43   am
   100    41    40    1
   101    95    97   ar
   102    95    94    1
   103   119   118    1
   104   119   120    2
   105    67    68    1
   106   145   143   am
   107   131   130    1
   108   131   132    1
   109    94    91    1
   110   122   120    1
   111   120   121    1
   112   111   110    1
   113    90    91    1
   114   141   132   am
   115   141   142    1
   116    71    68    1
   117    71    72    1
   118   109   110   ar
   119   109   107   ar
   120   132   133    2
   121   143   144    2
   122   143   142    1
   123    68    69    1
   124    73    72    2
   125    91    92    1
   126    72    74   am
   127   110   108   ar
   128   107   105   ar
   129    92    93    2
   130   108   106   ar
   131    69    75   am
   132    69    70    2
   133    75    76    1
   134   105   106   ar
   135   105   104    1
   136    80    79    1
   137   104   101    1
   138    76    79    1
   139    76    77    1
   140    79    81    1
   141    89    87   am
   142   103   102    2
   143    77    78    2
   144   101   102    1
   145   101   100    1
   146    87    88    2
   147    87    86    1
   148    82    83    1
   149    86    83    1
   150    83    84    1
   151    84    85    2
