@<TRIPOS>MOLECULE
tmp/1up9A00.pdb
 198 195 0 0 0
SMALL
GASTEIGER

@<TRIPOS>ATOM
      1  N        -11.9460   61.5170    5.2380 N.3     1  ALA1       -0.1231
      2  CA       -12.3320   60.1580    5.6170 C.3     1  ALA1        0.1679
      3  C        -13.4270   59.5480    4.7630 C.2     1  ALA1        0.2434
      4  O        -14.4270   60.2010    4.4410 O.2     1  ALA1       -0.2733
      5  CB       -12.8070   60.2150    7.0690 C.3     1  ALA1        0.0304
      6  N        -13.3340   58.2800    4.3900 N.am    2  PRO2       -0.2718
      7  CA       -14.4320   57.6200    3.6620 C.3     2  PRO2        0.1535
      8  C        -15.7320   57.6740    4.4600 C.2     2  PRO2        0.2598
      9  O        -15.7460   57.8860    5.7020 O.2     2  PRO2       -0.2715
     10  CB       -13.9750   56.1700    3.5540 C.3     2  PRO2        0.0310
     11  CG       -12.9810   56.0420    4.6830 C.3     2  PRO2        0.0237
     12  CD       -12.2320   57.3570    4.6290 C.3     2  PRO2        0.0939
     13  N        -16.8230   57.4270    3.7540 N.am    3  ALA3       -0.1964
     14  CA       -18.1370   57.3960    4.3750 C.3     3  ALA3        0.1728
     15  C        -18.2190   56.3240    5.4580 C.2     3  ALA3        0.2616
     16  O        -17.8030   55.1880    5.1720 O.2     3  ALA3       -0.2715
     17  CB       -19.2420   57.0640    3.3830 C.3     3  ALA3        0.0334
     18  N        -18.7690   56.6570    6.6160 N.am    4  VAL4       -0.1964
     19  CA       -18.9660   55.5490    7.5920 C.3     4  VAL4        0.1712
     20  C        -20.0090   54.5910    7.0420 C.2     4  VAL4        0.2458
     21  O        -21.0280   54.9860    6.4860 O.2     4  VAL4       -0.2730
     22  CB       -19.3620   56.0870    8.9740 C.3     4  VAL4        0.0289
     23  CG1      -20.8110   56.5820    9.0330 C.3     4  VAL4        0.0023
     24  CG2      -19.1520   55.0740   10.0870 C.3     4  VAL4        0.0023
     25  N        -19.7830   53.2980    7.1720 N.am    5  PRO5       -0.2727
     26  CA       -20.8420   52.3510    6.7650 C.3     5  PRO5        0.1402
     27  C        -22.1550   52.5870    7.5230 C.2     5  PRO5        0.2269
     28  O        -22.2190   52.7810    8.7510 O.2     5  PRO5       -0.2865
     29  CB       -20.2180   50.9900    7.0890 C.3     5  PRO5        0.0296
     30  CG       -18.7370   51.2270    7.0560 C.3     5  PRO5        0.0237
     31  CD       -18.5630   52.6280    7.6540 C.3     5  PRO5        0.0939
     32  N        -21.2780   45.6880    8.9240 N.3     9  VAL9       -0.1231
     33  CA       -20.2850   45.1800    7.9640 C.3     9  VAL9        0.1692
     34  C        -19.6230   43.9310    8.4740 C.2     9  VAL9        0.2592
     35  O        -19.5130   43.7430    9.7040 O.2     9  VAL9       -0.2718
     36  CB       -19.2050   46.2320    7.6530 C.3     9  VAL9        0.0266
     37  CG1      -19.8750   47.4350    6.9830 C.3     9  VAL9        0.0020
     38  CG2      -18.4520   46.7290    8.8870 C.3     9  VAL9        0.0020
     39  N        -19.1420   43.0660    7.5860 N.am   10  GLU10      -0.1966
     40  CA       -18.4730   41.8570    8.0210 C.3    10  GLU10       0.1733
     41  C        -17.0740   42.0940    8.5950 C.2    10  GLU10       0.2616
     42  O        -16.2410   42.7990    7.9940 O.2    10  GLU10      -0.2715
     43  CB       -18.2440   40.8970    6.8130 C.3    10  GLU10       0.0429
     44  CG       -19.5380   40.2770    6.3200 C.3    10  GLU10       0.1163
     45  CD       -19.4020   39.0380    5.4600 C.2    10  GLU10       0.3649
     46  OE1      -18.9170   39.3980    4.3400 O.co2  10  GLU10      -0.2457
     47  OE2      -19.7950   37.8420    5.7100 O.co2  10  GLU10      -0.2457
     48  N        -16.7360   41.4440    9.6710 N.am   11  VAL11      -0.1963
     49  CA       -15.3600   41.3340   10.1380 C.3    11  VAL11       0.1727
     50  C        -15.0270   39.8420   10.0370 C.2    11  VAL11       0.2616
     51  O        -15.4750   39.0390   10.8510 O.2    11  VAL11      -0.2715
     52  CB       -15.1860   41.8280   11.5780 C.3    11  VAL11       0.0290
     53  CG1      -13.6860   41.8570   11.9200 C.3    11  VAL11       0.0023
     54  CG2      -15.7600   43.2110   11.8080 C.3    11  VAL11       0.0023
     55  N        -14.2680   39.5220    8.9800 N.am   12  LYS12      -0.1977
     56  CA       -13.9460   38.1320    8.6830 C.3    12  LYS12       0.1596
     57  C        -12.7450   37.6110    9.4440 C.2    12  LYS12       0.2287
     58  O        -11.6440   38.1300    9.2200 O.2    12  LYS12      -0.2864
     59  CB       -13.6850   37.9160    7.1970 C.3    12  LYS12       0.0298
     60  CG       -14.9450   38.1530    6.3920 C.3    12  LYS12       0.0038
     61  CD       -14.6580   37.8620    4.9230 C.3    12  LYS12       0.0206
     62  CE       -15.9270   38.1070    4.1250 C.3    12  LYS12       0.1093
     63  NZ       -15.7400   37.6510    2.7060 N.3    12  LYS12      -0.1314
     64  N        -20.2150   43.9700   12.3660 N.3    20  PHE20      -0.1241
     65  CA       -19.8780   45.1360   13.1800 C.3    20  PHE20       0.1605
     66  C        -20.8460   46.2840   12.8380 C.2    20  PHE20       0.2264
     67  O        -20.8740   46.7380   11.6620 O.2    20  PHE20      -0.2867
     68  CB       -18.4110   45.5670   12.9610 C.3    20  PHE20       0.0534
     69  CG       -18.1520   46.8980   13.6810 C.ar   20  PHE20      -0.0203
     70  CD1      -17.9860   46.9640   15.0490 C.ar   20  PHE20      -0.0042
     71  CD2      -18.0960   48.0720   12.9110 C.ar   20  PHE20      -0.0042
     72  CE1      -17.7850   48.1740   15.6670 C.ar   20  PHE20      -0.0003
     73  CE2      -17.8840   49.2930   13.5280 C.ar   20  PHE20      -0.0003
     74  CZ       -17.7250   49.3380   14.9050 C.ar   20  PHE20      -0.0000
     75  N        -21.7170   50.1860   12.9870 N.3    22  HIS22      -0.1241
     76  CA       -21.1550   51.4760   13.3470 C.3    22  HIS22       0.1621
     77  C        -22.1270   52.2880   14.1960 C.2    22  HIS22       0.2264
     78  O        -21.6640   53.1360   15.0020 O.2    22  HIS22      -0.2867
     79  CB       -20.7600   52.3330   12.1290 C.3    22  HIS22       0.0745
     80  CG       -19.4230   51.9170   11.6010 C.ar   22  HIS22       0.0817
     81  ND1      -19.2160   50.8220   10.7750 N.ar   22  HIS22      -0.2268
     82  CD2      -18.1940   52.4310   11.7600 C.ar   22  HIS22       0.1154
     83  CE1      -17.9280   50.7100   10.4570 C.ar   22  HIS22       0.1986
     84  NE2      -17.2560   51.6940   11.0550 N.ar   22  HIS22      -0.2212
     85  N        -21.7080   53.0550   17.8210 N.3    25  HIS25      -0.1226
     86  CA       -20.3900   53.6370   18.0800 C.3    25  HIS25       0.1752
     87  C        -20.3220   55.0470   17.5490 C.2    25  HIS25       0.2595
     88  O        -19.2140   55.5880   17.4040 O.2    25  HIS25      -0.2718
     89  CB       -19.3200   52.7330   17.4340 C.3    25  HIS25       0.0759
     90  CG       -19.3550   51.3260   17.9680 C.ar   25  HIS25       0.0818
     91  ND1      -20.0440   50.3120   17.3060 N.ar   25  HIS25      -0.2268
     92  CD2      -18.8800   50.7670   19.0860 C.ar   25  HIS25       0.1154
     93  CE1      -19.9450   49.1930   17.9860 C.ar   25  HIS25       0.1986
     94  NE2      -19.2430   49.4470   19.1030 N.ar   25  HIS25      -0.2212
     95  N        -21.4520   55.7120   17.2690 N.am   26  GLU26      -0.1979
     96  CA       -21.4080   57.0440   16.6680 C.3    26  GLU26       0.1602
     97  C        -20.7090   58.0740   17.5490 C.2    26  GLU26       0.2287
     98  O        -20.2100   59.0290   16.9720 O.2    26  GLU26      -0.2864
     99  CB       -22.8230   57.5310   16.3310 C.3    26  GLU26       0.0415
    100  CG       -23.2790   56.7340   15.1140 C.3    26  GLU26       0.1163
    101  CD       -24.6610   57.1480   14.6200 C.2    26  GLU26       0.3649
    102  OE1      -25.1500   58.1880   15.1240 O.co2  26  GLU26      -0.2457
    103  OE2      -25.1850   56.4200   13.7440 O.co2  26  GLU26      -0.2457
    104  N        -18.0590   57.3880   19.4520 N.3    28  VAL28      -0.1231
    105  CA       -16.6630   56.9700   19.5310 C.3    28  VAL28       0.1692
    106  C        -15.8980   57.6080   18.3670 C.2    28  VAL28       0.2592
    107  O        -16.3340   57.5250   17.1980 O.2    28  VAL28      -0.2718
    108  CB       -16.5140   55.4530   19.4780 C.3    28  VAL28       0.0266
    109  CG1      -15.0440   55.0390   19.5630 C.3    28  VAL28       0.0020
    110  CG2      -17.2980   54.8290   20.6270 C.3    28  VAL28       0.0020
    111  N        -14.7700   58.2590   18.6660 N.am   29  GLU29      -0.1966
    112  CA       -13.9760   58.8210   17.5840 C.3    29  GLU29       0.1733
    113  C        -13.5560   57.7660   16.5710 C.2    29  GLU29       0.2616
    114  O        -13.1480   56.6890   17.0000 O.2    29  GLU29      -0.2715
    115  CB       -12.7230   59.4830   18.1680 C.3    29  GLU29       0.0429
    116  CG       -13.0470   60.7480   18.9480 C.3    29  GLU29       0.1163
    117  CD       -11.8330   61.4070   19.5720 C.2    29  GLU29       0.3649
    118  OE1      -10.7310   60.8390   19.4120 O.co2  29  GLU29      -0.2457
    119  OE2      -12.0300   62.4600   20.2420 O.co2  29  GLU29      -0.2457
    120  N        -13.5760   58.0560   15.2600 N.am   30  CYS30      -0.1968
    121  CA       -13.1870   57.0440   14.2820 C.3    30  CYS30       0.1712
    122  C        -11.8000   56.4880   14.5870 C.2    30  CYS30       0.2296
    123  O        -11.5290   55.3150   14.4710 O.2    30  CYS30      -0.2864
    124  CB       -13.1730   57.5820   12.8320 C.3    30  CYS30       0.0983
    125  SG       -14.5360   58.5880   12.3040 S.3    30  CYS30      -0.0798
    126  N        -10.3040   55.9870   17.2680 N.3    32  THR32      -0.1203
    127  CA       -10.1160   54.9810   18.3230 C.3    32  THR32       0.1994
    128  C         -9.9040   53.6050   17.7250 C.2    32  THR32       0.2618
    129  O         -9.0800   52.8080   18.2090 O.2    32  THR32      -0.2717
    130  CB       -11.3750   54.9740   19.1920 C.3    32  THR32       0.1784
    131  OG1      -11.3740   56.2520   19.8760 O.3    32  THR32      -0.2211
    132  CG2      -11.3310   53.8160   20.1830 C.3    32  THR32       0.0376
    133  N        -10.6710   53.3300   16.6590 N.am   33  CYS33      -0.1955
    134  CA       -10.5970   52.0250   15.9880 C.3    33  CYS33       0.1843
    135  C         -9.6850   52.0760   14.7630 C.2    33  CYS33       0.2625
    136  O         -8.7740   51.2750   14.6470 O.2    33  CYS33      -0.2714
    137  CB       -12.0120   51.5720   15.5920 C.3    33  CYS33       0.0997
    138  SG       -13.0210   51.4340   17.0940 S.3    33  CYS33      -0.0797
    139  N        -10.0280   53.0240   13.9030 N.am   34  HIS34      -0.1973
    140  CA        -9.2400   53.2410   12.6790 C.3    34  HIS34       0.1656
    141  C         -8.0450   54.0850   13.0490 C.2    34  HIS34       0.2291
    142  O         -7.9380   55.2780   12.7280 O.2    34  HIS34      -0.2864
    143  CB       -10.0950   53.9330   11.6350 C.3    34  HIS34       0.0771
    144  CG       -11.2880   53.1270   11.2320 C.ar   34  HIS34       0.0820
    145  ND1      -11.2160   52.0250   10.3880 N.ar   34  HIS34      -0.2267
    146  CD2      -12.6020   53.2720   11.5320 C.ar   34  HIS34       0.1154
    147  CE1      -12.4470   51.5310   10.2070 C.ar   34  HIS34       0.1986
    148  NE2      -13.2980   52.2630   10.8950 N.ar   34  HIS34      -0.2212
    149  N         -8.2220   53.8310    6.9910 N.3    43  TYR43      -0.1227
    150  CA        -9.5310   53.2400    7.2040 C.3    43  TYR43       0.1736
    151  C         -9.6290   51.8710    6.5670 C.2    43  TYR43       0.2595
    152  O        -10.7320   51.3210    6.3820 O.2    43  TYR43      -0.2718
    153  CB       -10.5520   54.1870    6.5790 C.3    43  TYR43       0.0548
    154  CG       -10.7950   55.4660    7.3340 C.ar   43  TYR43      -0.0200
    155  CD1      -10.1240   56.6250    7.0180 C.ar   43  TYR43      -0.0009
    156  CD2      -11.7200   55.5250    8.3830 C.ar   43  TYR43      -0.0009
    157  CE1      -10.3390   57.7930    7.6990 C.ar   43  TYR43       0.0417
    158  CE2      -11.9430   56.7040    9.0740 C.ar   43  TYR43       0.0417
    159  CZ       -11.2570   57.8370    8.7360 C.ar   43  TYR43       0.1957
    160  OH       -11.4580   59.0400    9.3920 O.3    43  TYR43      -0.2866
    161  N         -8.4770   51.3050    6.2120 N.am   44  ALA44      -0.1966
    162  CA        -8.5020   49.9830    5.5930 C.3    44  ALA44       0.1728
    163  C         -8.9870   48.9210    6.5780 C.2    44  ALA44       0.2616
    164  O         -8.9710   49.0480    7.7800 O.2    44  ALA44      -0.2715
    165  CB        -7.1250   49.6030    5.0900 C.3    44  ALA44       0.0334
    166  N         -9.4330   47.7890    6.0070 N.am   45  LYS45      -0.1963
    167  CA        -9.9020   46.7110    6.8660 C.3    45  LYS45       0.1728
    168  C         -8.7690   46.2470    7.7830 C.2    45  LYS45       0.2616
    169  O         -7.6100   46.1860    7.4170 O.2    45  LYS45      -0.2715
    170  CB       -10.4360   45.5460    6.0360 C.3    45  LYS45       0.0311
    171  CG       -11.5580   45.9530    5.0890 C.3    45  LYS45       0.0038
    172  CD       -12.0220   44.7800    4.2310 C.3    45  LYS45       0.0206
    173  CE       -13.4100   45.0510    3.6590 C.3    45  LYS45       0.1093
    174  NZ       -13.5280   44.4560    2.3030 N.3    45  LYS45      -0.1314
    175  N         -9.1670   45.9560    9.0190 N.am   46  CYS46      -0.1954
    176  CA        -8.2070   45.6530   10.0700 C.3    46  CYS46       0.1843
    177  C         -7.3100   44.4940    9.6780 C.2    46  CYS46       0.2626
    178  O         -6.1120   44.4960   10.0130 O.2    46  CYS46      -0.2714
    179  CB        -8.8990   45.3400   11.4000 C.3    46  CYS46       0.0997
    180  SG       -10.2820   46.4040   11.8470 S.3    46  CYS46      -0.0797
    181  N         -7.8690   43.4940    8.9770 N.am   47  GLY47      -0.1954
    182  CA        -7.1570   42.3150    8.5690 C.3    47  GLY47       0.1869
    183  C         -6.5190   42.4290    7.1970 C.2    47  GLY47       0.2309
    184  O         -6.1020   41.3880    6.6550 O.2    47  GLY47      -0.2863
    185  N         -5.4940   39.3440   14.2120 N.3    64  LEU64      -0.1245
    186  CA        -6.8230   39.9620   14.2280 C.3    64  LEU64       0.1561
    187  C         -7.5350   39.5680   15.5110 C.2    64  LEU64       0.2260
    188  O         -8.2020   40.3620   16.1700 O.2    64  LEU64      -0.2867
    189  CB        -7.6040   39.6020   12.9420 C.3    64  LEU64       0.0270
    190  CG        -8.9620   40.3210   12.8290 C.3    64  LEU64       0.0019
    191  CD1       -8.7530   41.8400   12.8280 C.3    64  LEU64       0.0001
    192  CD2       -9.6870   39.8600   11.5670 C.3    64  LEU64       0.0001
    193  N        -11.9570   45.8030   20.9550 N.3    79  CYS79      -0.1235
    194  CA       -13.3970   45.6980   21.1970 C.3    79  CYS79       0.1677
    195  C        -13.6650   45.3000   22.6430 C.2    79  CYS79       0.2270
    196  O        -14.4880   45.9390   23.3050 O.2    79  CYS79      -0.2867
    197  CB       -14.0470   44.6170   20.3220 C.3    79  CYS79       0.0956
    198  SG       -13.5590   44.6420   18.5510 S.3    79  CYS79      -0.0801
@<TRIPOS>BOND
     1   174   173    1
     2    63    62    1
     3    17    14    1
     4    10     7    1
     5    10    11    1
     6   173   172    1
     7     7     6    1
     8     7     8    1
     9    13    14    1
    10    13     8   am
    11    62    61    1
    12   172   171    1
    13    46    45   ar
    14    14    15    1
    15     6    12    1
    16     6     3   am
    17     4     3    2
    18     8     9    2
    19    12    11    1
    20     3     2    1
    21    61    60    1
    22   171   170    1
    23   165   162    1
    24    16    15    2
    25     1     2    1
    26    15    18   am
    27    45    47   ar
    28    45    44    1
    29   162   161    1
    30   162   163    1
    31     2     5    1
    32   166   163   am
    33   166   167    1
    34   170   167    1
    35   161   151   am
    36    44    43    1
    37   152   151    2
    38    60    59    1
    39    21    20    2
    40   151   150    1
    41   163   164    2
    42   153   150    1
    43   153   154    1
    44    18    19    1
    45   184   183    2
    46    26    29    1
    47    26    25    1
    48    26    27    1
    49    43    40    1
    50   167   168    1
    51    37    36    1
    52   149   150    1
    53   155   154   ar
    54   155   157   ar
    55    20    25   am
    56    20    19    1
    57    30    29    1
    58    30    31    1
    59    25    31    1
    60    59    56    1
    61   183   182    1
    62   154   156   ar
    63   169   168    2
    64    27    28    2
    65    39    40    1
    66    39    34   am
    67    19    22    1
    68    36    33    1
    69    36    38    1
    70   157   159   ar
    71   168   175   am
    72    33    34    1
    73    33    32    1
    74    42    41    2
    75    40    41    1
    76   156   158   ar
    77    34    35    2
    78   182   181    1
    79    41    48   am
    80    56    55    1
    81    56    57    1
    82   159   158   ar
    83   159   160    1
    84    22    23    1
    85    22    24    1
    86   181   177   am
    87    55    50   am
    88   175   176    1
    89    58    57    2
    90    48    49    1
    91   177   178    2
    92   177   176    1
    93    50    49    1
    94    50    51    2
    95   176   179    1
    96    49    52    1
    97   147   145   ar
    98   147   148   ar
    99   145   144   ar
   100    83    81   ar
   101    83    84   ar
   102    81    80   ar
   103   148   146   ar
   104    84    82   ar
   105   144   146   ar
   106   144   143    1
   107   179   180    1
   108   192   190    1
   109    52    54    1
   110    52    53    1
   111    80    82   ar
   112    80    79    1
   113   143   140    1
   114    67    66    2
   115    79    76    1
   116   125   124    1
   117    64    65    1
   118   140   141    1
   119   140   139    1
   120   142   141    2
   121   191   190    1
   122   190   189    1
   123   124   121    1
   124    66    65    1
   125    71    73   ar
   126    71    69   ar
   127   189   186    1
   128    68    65    1
   129    68    69    1
   130    75    76    1
   131    76    77    1
   132    73    74   ar
   133    69    70   ar
   134   103   101   ar
   135   139   135   am
   136    77    78    2
   137   185   186    1
   138   186   187    1
   139   121   122    1
   140   121   120    1
   141   123   122    2
   142   101   100    1
   143   101   102   ar
   144   136   135    2
   145   135   134    1
   146    74    72   ar
   147    70    72   ar
   148   100    99    1
   149   120   113   am
   150   187   188    2
   151   137   134    1
   152   137   138    1
   153   134   133    1
   154    99    96    1
   155   113   114    2
   156   113   112    1
   157   133   128   am
   158    96    95    1
   159    96    97    1
   160    98    97    2
   161   107   106    2
   162   126   127    1
   163    95    87   am
   164    91    90   ar
   165    91    93   ar
   166    88    87    2
   167    89    90    1
   168    89    86    1
   169    87    86    1
   170   112   115    1
   171   112   111    1
   172   128   129    2
   173   128   127    1
   174    85    86    1
   175    90    92   ar
   176    93    94   ar
   177   115   116    1
   178   127   130    1
   179   106   111   am
   180   106   105    1
   181   198   197    1
   182   116   117    1
   183    92    94   ar
   184   130   131    1
   185   130   132    1
   186   118   117   ar
   187   104   105    1
   188   108   105    1
   189   108   109    1
   190   108   110    1
   191   117   119   ar
   192   197   194    1
   193   193   194    1
   194   194   195    1
   195   195   196    2
