@<TRIPOS>MOLECULE
tmp/1up9A01.pdb
 176 172 0 0 0
SMALL
GASTEIGER

@<TRIPOS>ATOM
      1  N        -10.6710   53.3300   16.6590 N.3    33  CYS33      -0.1221
      2  CA       -10.5970   52.0250   15.9880 C.3    33  CYS33       0.1808
      3  C         -9.6850   52.0760   14.7630 C.2    33  CYS33       0.2601
      4  O         -8.7740   51.2750   14.6470 O.2    33  CYS33      -0.2717
      5  CB       -12.0120   51.5720   15.5920 C.3    33  CYS33       0.0970
      6  SG       -13.0210   51.4340   17.0940 S.3    33  CYS33      -0.0800
      7  N        -10.0280   53.0240   13.9030 N.am   34  HIS34      -0.1961
      8  CA        -9.2400   53.2410   12.6790 C.3    34  HIS34       0.1787
      9  C         -8.0450   54.0850   13.0490 C.2    34  HIS34       0.2620
     10  O         -7.9380   55.2780   12.7280 O.2    34  HIS34      -0.2715
     11  CB       -10.0950   53.9330   11.6350 C.3    34  HIS34       0.0785
     12  CG       -11.2880   53.1270   11.2320 C.ar   34  HIS34       0.0821
     13  ND1      -11.2160   52.0250   10.3880 N.ar   34  HIS34      -0.2267
     14  CD2      -12.6020   53.2720   11.5320 C.ar   34  HIS34       0.1154
     15  CE1      -12.4470   51.5310   10.2070 C.ar   34  HIS34       0.1986
     16  NE2      -13.2980   52.2630   10.8950 N.ar   34  HIS34      -0.2212
     17  N         -7.1100   53.4740   13.7830 N.am   35  HIS35      -0.1973
     18  CA        -6.0420   54.2380   14.3890 C.3    35  HIS35       0.1656
     19  C         -5.0560   54.6880   13.3050 C.2    35  HIS35       0.2291
     20  O         -4.9710   54.1260   12.2080 O.2    35  HIS35      -0.2864
     21  CB        -5.3190   53.4250   15.4390 C.3    35  HIS35       0.0771
     22  CG        -4.7420   52.1540   14.9260 C.ar   35  HIS35       0.0820
     23  ND1       -3.5250   52.1380   14.2890 N.ar   35  HIS35      -0.2267
     24  CD2       -5.2040   50.8780   14.9310 C.ar   35  HIS35       0.1154
     25  CE1       -3.2630   50.8890   13.9240 C.ar   35  HIS35       0.1986
     26  NE2       -4.2490   50.0890   14.2940 N.ar   35  HIS35      -0.2212
     27  N         -1.6410   54.9990   11.2640 N.3    37  VAL37      -0.1231
     28  CA        -0.5280   54.1010   10.9830 C.3    37  VAL37       0.1692
     29  C          0.5370   54.9220   10.2780 C.2    37  VAL37       0.2592
     30  O          0.2440   55.6150    9.2970 O.2    37  VAL37      -0.2718
     31  CB        -0.9960   52.9470   10.0670 C.3    37  VAL37       0.0266
     32  CG1        0.1820   52.0940    9.6720 C.3    37  VAL37       0.0020
     33  CG2       -2.0770   52.1170   10.7650 C.3    37  VAL37       0.0020
     34  N          1.7590   54.8470   10.7740 N.am   38  ASP38      -0.1974
     35  CA         2.8640   55.6400   10.2490 C.3    38  ASP38       0.1709
     36  C          2.4580   57.1180   10.2530 C.2    38  ASP38       0.2293
     37  O          2.8780   57.8140    9.3400 O.2    38  ASP38      -0.2864
     38  CB         3.2800   55.2070    8.8420 C.3    38  ASP38       0.1436
     39  CG         3.8350   53.8010    8.8380 C.2    38  ASP38       0.3671
     40  OD1        4.3100   53.3120    9.8710 O.co2  38  ASP38      -0.2456
     41  OD2        3.7830   53.1260    7.7920 O.co2  38  ASP38      -0.2456
     42  N         -5.8680   55.9770    8.3650 N.3    42  SER42      -0.1217
     43  CA        -6.1990   54.8500    7.5200 C.3    42  SER42       0.1889
     44  C         -7.4950   54.1880    8.0370 C.2    42  SER42       0.2288
     45  O         -7.8330   54.0180    9.2020 O.2    42  SER42      -0.2866
     46  CB        -5.0600   53.8470    7.4450 C.3    42  SER42       0.2089
     47  OG        -4.8660   53.1610    8.6650 O.3    42  SER42      -0.2183
     48  N         -8.4770   51.3050    6.2120 N.3    44  ALA44      -0.1231
     49  CA        -8.5020   49.9830    5.5930 C.3    44  ALA44       0.1694
     50  C         -8.9870   48.9210    6.5780 C.2    44  ALA44       0.2592
     51  O         -8.9710   49.0480    7.7800 O.2    44  ALA44      -0.2718
     52  CB        -7.1250   49.6030    5.0900 C.3    44  ALA44       0.0304
     53  N         -9.4330   47.7890    6.0070 N.am   45  LYS45      -0.1966
     54  CA        -9.9020   46.7110    6.8660 C.3    45  LYS45       0.1728
     55  C         -8.7690   46.2470    7.7830 C.2    45  LYS45       0.2616
     56  O         -7.6100   46.1860    7.4170 O.2    45  LYS45      -0.2715
     57  CB       -10.4360   45.5460    6.0360 C.3    45  LYS45       0.0311
     58  CG       -11.5580   45.9530    5.0890 C.3    45  LYS45       0.0038
     59  CD       -12.0220   44.7800    4.2310 C.3    45  LYS45       0.0206
     60  CE       -13.4100   45.0510    3.6590 C.3    45  LYS45       0.1093
     61  NZ       -13.5280   44.4560    2.3030 N.3    45  LYS45      -0.1314
     62  N         -9.1670   45.9560    9.0190 N.am   46  CYS46      -0.1968
     63  CA        -8.2070   45.6530   10.0700 C.3    46  CYS46       0.1712
     64  C         -7.3100   44.4940    9.6780 C.2    46  CYS46       0.2296
     65  O         -6.1120   44.4960   10.0130 O.2    46  CYS46      -0.2864
     66  CB        -8.8990   45.3400   11.4000 C.3    46  CYS46       0.0983
     67  SG       -10.2820   46.4040   11.8470 S.3    46  CYS46      -0.0798
     68  N         -0.5320   43.3280    5.4810 N.3    50  GLY50      -0.1210
     69  CA         0.3780   44.2890    6.0610 C.3    50  GLY50       0.1956
     70  C         -0.1450   44.8530    7.3650 C.2    50  GLY50       0.2612
     71  O          0.5980   45.6010    8.0060 O.2    50  GLY50      -0.2717
     72  N         -1.3720   44.5450    7.7870 N.am   51  CYS51      -0.1956
     73  CA        -1.9610   45.0410    9.0340 C.3    51  CYS51       0.1843
     74  C         -2.1940   43.8710    9.9750 C.2    51  CYS51       0.2625
     75  O         -1.2040   43.2440   10.3420 O.2    51  CYS51      -0.2714
     76  CB        -3.2540   45.7900    8.7240 C.3    51  CYS51       0.0997
     77  SG        -2.9440   47.1330    7.5320 S.3    51  CYS51      -0.0797
     78  N         -3.4330   43.5520   10.3620 N.am   52  HIS52      -0.1973
     79  CA        -3.6250   42.4200   11.2760 C.3    52  HIS52       0.1656
     80  C         -4.0230   41.1870   10.4650 C.2    52  HIS52       0.2291
     81  O         -5.1270   40.6720   10.5900 O.2    52  HIS52      -0.2864
     82  CB        -4.6620   42.7230   12.3880 C.3    52  HIS52       0.0771
     83  CG        -4.3260   44.0310   13.0330 C.ar   52  HIS52       0.0820
     84  ND1       -3.2620   44.0990   13.9190 N.ar   52  HIS52      -0.2267
     85  CD2       -4.8110   45.2850   12.9280 C.ar   52  HIS52       0.1154
     86  CE1       -3.1300   45.3520   14.3410 C.ar   52  HIS52       0.1986
     87  NE2       -4.0580   46.0810   13.7460 N.ar   52  HIS52      -0.2212
     88  N          0.8670   41.2710   17.5450 N.3    61  GLU61      -0.1245
     89  CA         0.2540   42.4680   16.9650 C.3    61  GLU61       0.1567
     90  C         -0.3260   42.2010   15.5810 C.2    61  GLU61       0.2260
     91  O         -1.2120   42.9770   15.1870 O.2    61  GLU61      -0.2867
     92  CB         1.2440   43.6290   17.0520 C.3    61  GLU61       0.0388
     93  CG         0.8900   44.7820   16.1160 C.3    61  GLU61       0.1160
     94  CD         1.8420   44.6160   14.9330 C.2    61  GLU61       0.3649
     95  OE1        1.8580   43.4910   14.3960 O.co2  61  GLU61      -0.2457
     96  OE2        2.5500   45.5990   14.6370 O.co2  61  GLU61      -0.2457
     97  N         -5.4940   39.3440   14.2120 N.3    64  LEU64      -0.1245
     98  CA        -6.8230   39.9620   14.2280 C.3    64  LEU64       0.1561
     99  C         -7.5350   39.5680   15.5110 C.2    64  LEU64       0.2260
    100  O         -8.2020   40.3620   16.1700 O.2    64  LEU64      -0.2867
    101  CB        -7.6040   39.6020   12.9420 C.3    64  LEU64       0.0270
    102  CG        -8.9620   40.3210   12.8290 C.3    64  LEU64       0.0019
    103  CD1       -8.7530   41.8400   12.8280 C.3    64  LEU64       0.0001
    104  CD2       -9.6870   39.8600   11.5670 C.3    64  LEU64       0.0001
    105  N         -6.4150   38.8050   18.4240 N.3    66  TYR66      -0.1227
    106  CA        -5.8360   39.4800   19.5920 C.3    66  TYR66       0.1736
    107  C         -6.3100   40.9120   19.6480 C.2    66  TYR66       0.2595
    108  O         -6.6990   41.4590   20.6630 O.2    66  TYR66      -0.2718
    109  CB        -4.3050   39.4350   19.4710 C.3    66  TYR66       0.0548
    110  CG        -3.5990   39.9420   20.6870 C.ar   66  TYR66      -0.0200
    111  CD1       -3.6230   39.2640   21.8760 C.ar   66  TYR66      -0.0009
    112  CD2       -2.8970   41.1390   20.5750 C.ar   66  TYR66      -0.0009
    113  CE1       -2.9400   39.8050   22.9480 C.ar   66  TYR66       0.0417
    114  CE2       -2.2210   41.6630   21.6410 C.ar   66  TYR66       0.0417
    115  CZ        -2.2550   40.9860   22.8250 C.ar   66  TYR66       0.1957
    116  OH        -1.5500   41.5540   23.8670 O.3    66  TYR66      -0.2866
    117  N         -6.3060   41.6120   18.4870 N.am   67  VAL67      -0.1966
    118  CA        -6.6520   43.0350   18.5350 C.3    67  VAL67       0.1727
    119  C         -8.1510   43.2280   18.7330 C.2    67  VAL67       0.2616
    120  O         -8.5660   44.3220   19.1440 O.2    67  VAL67      -0.2715
    121  CB        -6.1680   43.8660   17.3290 C.3    67  VAL67       0.0290
    122  CG1       -4.6640   43.7190   17.1270 C.3    67  VAL67       0.0023
    123  CG2       -6.9100   43.5330   16.0290 C.3    67  VAL67       0.0023
    124  N         -8.9580   42.1980   18.5130 N.am   68  VAL68      -0.1977
    125  CA       -10.3890   42.2930   18.8460 C.3    68  VAL68       0.1596
    126  C        -10.6110   41.9460   20.2980 C.2    68  VAL68       0.2287
    127  O        -11.4070   42.5860   20.9980 O.2    68  VAL68      -0.2864
    128  CB       -11.1240   41.3240   17.9030 C.3    68  VAL68       0.0276
    129  CG1      -12.5230   41.0080   18.4270 C.3    68  VAL68       0.0022
    130  CG2      -11.1390   41.9000   16.4890 C.3    68  VAL68       0.0022
    131  N         -2.8510   46.8050   25.4690 N.3    74  LEU74      -0.1231
    132  CA        -2.5180   47.1440   24.0950 C.3    74  LEU74       0.1693
    133  C         -2.2970   48.6260   23.7780 C.2    74  LEU74       0.2592
    134  O         -2.5870   49.5530   24.5190 O.2    74  LEU74      -0.2718
    135  CB        -3.6180   46.6380   23.1390 C.3    74  LEU74       0.0284
    136  CG        -4.4350   45.4090   23.4900 C.3    74  LEU74       0.0019
    137  CD1       -5.2820   44.9800   22.3030 C.3    74  LEU74       0.0001
    138  CD2       -3.5950   44.2230   23.9240 C.3    74  LEU74       0.0001
    139  N         -1.7550   48.8450   22.5590 N.am   75  LYS75      -0.1966
    140  CA        -1.3400   50.1310   22.0390 C.3    75  LYS75       0.1728
    141  C         -2.5250   50.9150   21.4850 C.2    75  LYS75       0.2616
    142  O         -2.4680   52.1360   21.2830 O.2    75  LYS75      -0.2715
    143  CB        -0.2940   49.9990   20.9290 C.3    75  LYS75       0.0311
    144  CG         1.0330   49.3800   21.3270 C.3    75  LYS75       0.0038
    145  CD         1.9330   49.2400   20.0940 C.3    75  LYS75       0.0206
    146  CE         1.7870   47.8530   19.4740 C.3    75  LYS75       0.1093
    147  NZ         2.7050   46.8580   20.1070 N.3    75  LYS75      -0.1314
    148  N         -3.6500   50.2620   21.2150 N.am   76  HIS76      -0.1959
    149  CA        -4.9020   50.9060   20.7750 C.3    76  HIS76       0.1787
    150  C         -6.0000   50.1410   21.5040 C.2    76  HIS76       0.2621
    151  O         -5.7250   49.0880   22.1080 O.2    76  HIS76      -0.2715
    152  CB        -5.0710   50.8890   19.2600 C.3    76  HIS76       0.0785
    153  CG        -3.9230   51.5910   18.5830 C.ar   76  HIS76       0.0821
    154  ND1       -3.7210   52.9540   18.6860 N.ar   76  HIS76      -0.2267
    155  CD2       -2.9190   51.0800   17.8480 C.ar   76  HIS76       0.1154
    156  CE1       -2.6310   53.2700   18.0060 C.ar   76  HIS76       0.1986
    157  NE2       -2.1390   52.1510   17.4980 N.ar   76  HIS76      -0.2212
    158  N         -7.2270   50.6240   21.4500 N.am   77  THR77      -0.1937
    159  CA        -8.3150   50.0190   22.1950 C.3    77  THR77       0.2028
    160  C         -8.9610   48.9160   21.3710 C.2    77  THR77       0.2643
    161  O         -9.4360   49.1240   20.2390 O.2    77  THR77      -0.2714
    162  CB        -9.3670   51.1100   22.5150 C.3    77  THR77       0.1808
    163  OG1       -8.7190   52.1070   23.3460 O.3    77  THR77      -0.2208
    164  CG2      -10.5350   50.5760   23.3050 C.3    77  THR77       0.0379
    165  N         -9.0050   47.7120   21.9330 N.am   78  SER78      -0.1935
    166  CA        -9.7190   46.5910   21.3600 C.3    78  SER78       0.2055
    167  C        -11.2030   46.6210   21.7230 C.2    78  SER78       0.2643
    168  O        -11.6910   47.2960   22.6130 O.2    78  SER78      -0.2714
    169  CB        -9.1260   45.2510   21.8620 C.3    78  SER78       0.2130
    170  OG        -9.5780   45.1310   23.2180 O.3    78  SER78      -0.2179
    171  N        -11.9570   45.8030   20.9550 N.am   79  CYS79      -0.1967
    172  CA       -13.3970   45.6980   21.1970 C.3    79  CYS79       0.1712
    173  C        -13.6650   45.3000   22.6430 C.2    79  CYS79       0.2296
    174  O        -14.4880   45.9390   23.3050 O.2    79  CYS79      -0.2864
    175  CB       -14.0470   44.6170   20.3220 C.3    79  CYS79       0.0983
    176  SG       -13.5590   44.6420   18.5510 S.3    79  CYS79      -0.0798
@<TRIPOS>BOND
     1    61    60    1
     2    60    59    1
     3    59    58    1
     4    58    57    1
     5    52    49    1
     6    68    69    1
     7    49    48    1
     8    49    50    1
     9    53    50   am
    10    53    54    1
    11    57    54    1
    12    69    70    1
    13    50    51    2
    14    54    55    1
    15    70    72   am
    16    70    71    2
    17    56    55    2
    18    46    43    1
    19    46    47    1
    20    43    44    1
    21    43    42    1
    22    77    76    1
    23    55    62   am
    24    72    73    1
    25    41    39   ar
    26    44    45    2
    27    76    73    1
    28    39    38    1
    29    39    40   ar
    30    38    35    1
    31    62    63    1
    32    73    74    1
    33    30    29    2
    34    37    36    2
    35    32    31    1
    36    64    65    2
    37    64    63    1
    38    74    75    2
    39    74    78   am
    40    31    33    1
    41    31    28    1
    42    63    66    1
    43    15    13   ar
    44    15    16   ar
    45    35    36    1
    46    35    34    1
    47    29    34   am
    48    29    28    1
    49    78    79    1
    50    13    12   ar
    51    80    81    2
    52    80    79    1
    53    16    14   ar
    54    28    27    1
    55    12    14   ar
    56    12    11    1
    57    79    82    1
    58    66    67    1
    59   104   102    1
    60    11     8    1
    61    20    19    2
    62    82    83    1
    63     8     9    1
    64     8     7    1
    65    10     9    2
    66   103   102    1
    67   102   101    1
    68    85    83   ar
    69    85    87   ar
    70   101    98    1
    71    83    84   ar
    72     9    17   am
    73    19    18    1
    74    87    86   ar
    75    17    18    1
    76     7     3   am
    77    84    86   ar
    78    25    23   ar
    79    25    26   ar
    80    97    98    1
    81    98    99    1
    82    23    22   ar
    83    26    24   ar
    84    18    21    1
    85    95    94   ar
    86    96    94   ar
    87     4     3    2
    88     3     2    1
    89    22    24   ar
    90    22    21    1
    91    94    93    1
    92    91    90    2
    93    99   100    2
    94    90    89    1
    95     5     2    1
    96     5     6    1
    97     2     1    1
    98   123   121    1
    99    93    92    1
   100   130   128    1
   101    89    92    1
   102    89    88    1
   103   122   121    1
   104   121   118    1
   105   157   155   ar
   106   157   156   ar
   107   155   153   ar
   108   128   129    1
   109   128   125    1
   110   156   154   ar
   111   105   106    1
   112   117   118    1
   113   117   107   am
   114   124   119   am
   115   124   125    1
   116   118   119    1
   117   176   175    1
   118   153   154   ar
   119   153   152    1
   120   119   120    2
   121   125   126    1
   122   152   149    1
   123   109   106    1
   124   109   110    1
   125   146   145    1
   126   146   147    1
   127   106   107    1
   128   107   108    2
   129   145   144    1
   130   161   160    2
   131   126   127    2
   132   175   172    1
   133   112   110   ar
   134   112   114   ar
   135   110   111   ar
   136   149   148    1
   137   149   150    1
   138   143   144    1
   139   143   140    1
   140   171   172    1
   141   171   167   am
   142   172   173    1
   143   148   141   am
   144   142   141    2
   145   166   167    1
   146   166   169    1
   147   166   165    1
   148   160   165   am
   149   160   159    1
   150   158   150   am
   151   158   159    1
   152   141   140    1
   153   150   151    2
   154   114   115   ar
   155   167   168    2
   156   169   170    1
   157   111   113   ar
   158   140   139    1
   159   159   162    1
   160   137   136    1
   161   162   164    1
   162   162   163    1
   163   139   133   am
   164   173   174    2
   165   115   113   ar
   166   115   116    1
   167   135   136    1
   168   135   132    1
   169   136   138    1
   170   133   132    1
   171   133   134    2
   172   132   131    1
