@<TRIPOS>MOLECULE
tmp/1up9A03.pdb
 185 176 0 0 0
SMALL
GASTEIGER

@<TRIPOS>ATOM
      1  N        -16.7360   41.4440    9.6710 N.3    11  VAL11      -0.1245
      2  CA       -15.3600   41.3340   10.1380 C.3    11  VAL11       0.1561
      3  C        -15.0270   39.8420   10.0370 C.2    11  VAL11       0.2260
      4  O        -15.4750   39.0390   10.8510 O.2    11  VAL11      -0.2867
      5  CB       -15.1860   41.8280   11.5780 C.3    11  VAL11       0.0252
      6  CG1      -13.6860   41.8570   11.9200 C.3    11  VAL11       0.0019
      7  CG2      -15.7600   43.2110   11.8080 C.3    11  VAL11       0.0019
      8  N        -12.9720   36.6050   10.2640 N.3    13  GLY13      -0.1210
      9  CA       -11.8720   35.8080   10.8120 C.3    13  GLY13       0.1956
     10  C        -11.5800   34.6520    9.8600 C.2    13  GLY13       0.2613
     11  O        -12.1280   34.6260    8.7620 O.2    13  GLY13      -0.2717
     12  N        -10.7350   33.7290   10.3030 N.am   14  SER14      -0.1938
     13  CA       -10.3980   32.5800    9.4690 C.3    14  SER14       0.2055
     14  C        -11.5880   31.6420    9.3420 C.2    14  SER14       0.2643
     15  O        -11.7160   31.0070    8.3020 O.2    14  SER14      -0.2714
     16  CB        -9.1830   31.8650   10.0710 C.3    14  SER14       0.2130
     17  OG        -9.4870   31.3510   11.3610 O.3    14  SER14      -0.2179
     18  N        -12.3990   31.5690   10.3960 N.am   15  GLN15      -0.1963
     19  CA       -13.5230   30.6550   10.5060 C.3    15  GLN15       0.1733
     20  C        -14.8650   31.2070   10.9660 C.2    15  GLN15       0.2616
     21  O        -15.8690   30.4820   10.8940 O.2    15  GLN15      -0.2715
     22  CB       -13.2440   29.6030   11.5950 C.3    15  GLN15       0.0408
     23  CG       -12.0930   28.6890   11.2010 C.3    15  GLN15       0.0908
     24  CD       -11.9670   27.3960   11.9630 C.2    15  GLN15       0.2608
     25  OE1      -11.0190   26.6460   11.7090 O.2    15  GLN15      -0.2717
     26  NE2      -12.8910   27.1240   12.8690 N.am   15  GLN15      -0.0878
     27  N        -14.8720   32.4160   11.4610 N.am   16  LYS16      -0.1977
     28  CA       -16.1060   33.0600   11.8930 C.3    16  LYS16       0.1596
     29  C        -16.1730   34.4340   11.2440 C.2    16  LYS16       0.2287
     30  O        -15.1150   35.0300   11.0030 O.2    16  LYS16      -0.2864
     31  CB       -16.2100   33.2610   13.4030 C.3    16  LYS16       0.0298
     32  CG       -16.2830   31.9940   14.2250 C.3    16  LYS16       0.0038
     33  CD       -16.4890   32.4090   15.7130 C.3    16  LYS16       0.0206
     34  CE       -16.5580   31.2100   16.6410 C.3    16  LYS16       0.1093
     35  NZ       -17.0050   31.5390   18.0220 N.3    16  LYS16      -0.1314
     36  N        -18.0410   38.1370   12.0950 N.3    18  VAL18      -0.1245
     37  CA       -18.8550   38.8720   13.0640 C.3    18  VAL18       0.1561
     38  C        -19.2940   40.1540   12.3470 C.2    18  VAL18       0.2260
     39  O        -18.4810   40.7990   11.6820 O.2    18  VAL18      -0.2867
     40  CB       -18.0150   39.1140   14.3220 C.3    18  VAL18       0.0252
     41  CG1      -18.6420   40.2400   15.1690 C.3    18  VAL18       0.0019
     42  CG2      -17.8330   37.8340   15.1510 C.3    18  VAL18       0.0019
     43  N         -4.9590   35.7080   10.6110 N.3    55  LEU55      -0.1231
     44  CA        -6.3440   35.4120   10.9410 C.3    55  LEU55       0.1693
     45  C         -6.4340   34.1240   11.7670 C.2    55  LEU55       0.2592
     46  O         -7.5520   33.7050   12.0860 O.2    55  LEU55      -0.2718
     47  CB        -7.2680   35.3520    9.7020 C.3    55  LEU55       0.0284
     48  CG        -7.3840   36.6320    8.8430 C.3    55  LEU55       0.0019
     49  CD1       -8.5860   36.5120    7.9050 C.3    55  LEU55       0.0001
     50  CD2       -7.4590   37.9220    9.6350 C.3    55  LEU55       0.0001
     51  N         -5.3110   33.4840   12.1320 N.am   56  THR56      -0.1953
     52  CA        -5.4870   32.2520   12.9010 C.3    56  THR56       0.1897
     53  C         -4.7910   32.3230   14.2470 C.2    56  THR56       0.2313
     54  O         -5.2300   31.7190   15.2380 O.2    56  THR56      -0.2863
     55  CB        -5.0350   31.0080   12.1040 C.3    56  THR56       0.1794
     56  OG1       -3.6650   31.1490   11.7090 O.3    56  THR56      -0.2208
     57  CG2       -5.8930   30.8430   10.8490 C.3    56  THR56       0.0378
     58  N         -3.6790   33.5030   17.9540 N.3    58  LYS58      -0.1245
     59  CA        -4.4250   34.1700   19.0140 C.3    58  LYS58       0.1561
     60  C         -3.6720   35.3310   19.6350 C.2    58  LYS58       0.2260
     61  O         -4.2120   36.1350   20.4120 O.2    58  LYS58      -0.2867
     62  CB        -4.7700   33.1770   20.1380 C.3    58  LYS58       0.0271
     63  CG        -5.8640   32.1890   19.7150 C.3    58  LYS58       0.0035
     64  CD        -6.6650   32.7490   18.5480 C.3    58  LYS58       0.0206
     65  CE        -8.0330   32.0920   18.4510 C.3    58  LYS58       0.1093
     66  NZ        -8.6130   31.8210   19.7990 N.3    58  LYS58      -0.1314
     67  N         -5.4940   39.3440   14.2120 N.3    64  LEU64      -0.1231
     68  CA        -6.8230   39.9620   14.2280 C.3    64  LEU64       0.1693
     69  C         -7.5350   39.5680   15.5110 C.2    64  LEU64       0.2592
     70  O         -8.2020   40.3620   16.1700 O.2    64  LEU64      -0.2718
     71  CB        -7.6040   39.6020   12.9420 C.3    64  LEU64       0.0284
     72  CG        -8.9620   40.3210   12.8290 C.3    64  LEU64       0.0019
     73  CD1       -8.7530   41.8400   12.8280 C.3    64  LEU64       0.0001
     74  CD2       -9.6870   39.8600   11.5670 C.3    64  LEU64       0.0001
     75  N         -7.4610   38.2780   15.9060 N.am   65  TYR65      -0.1976
     76  CA        -8.1680   37.8200   17.0850 C.3    65  TYR65       0.1639
     77  C         -7.7120   38.6140   18.3060 C.2    65  TYR65       0.2290
     78  O         -8.4960   38.9940   19.1700 O.2    65  TYR65      -0.2864
     79  CB        -7.8970   36.3370   17.3300 C.3    65  TYR65       0.0560
     80  CG        -8.5390   35.6990   18.5240 C.ar   65  TYR65      -0.0198
     81  CD1       -9.7920   35.1250   18.4100 C.ar   65  TYR65      -0.0009
     82  CD2       -7.8920   35.6690   19.7480 C.ar   65  TYR65      -0.0009
     83  CE1      -10.3450   34.5430   19.5400 C.ar   65  TYR65       0.0417
     84  CE2       -8.4380   35.0890   20.8900 C.ar   65  TYR65       0.0417
     85  CZ        -9.6860   34.5330   20.7540 C.ar   65  TYR65       0.1957
     86  OH       -10.2680   33.9330   21.8330 O.3    65  TYR65      -0.2866
     87  N         -8.9580   42.1980   18.5130 N.3    68  VAL68      -0.1231
     88  CA       -10.3890   42.2930   18.8460 C.3    68  VAL68       0.1692
     89  C        -10.6110   41.9460   20.2980 C.2    68  VAL68       0.2592
     90  O        -11.4070   42.5860   20.9980 O.2    68  VAL68      -0.2718
     91  CB       -11.1240   41.3240   17.9030 C.3    68  VAL68       0.0266
     92  CG1      -12.5230   41.0080   18.4270 C.3    68  VAL68       0.0020
     93  CG2      -11.1390   41.9000   16.4890 C.3    68  VAL68       0.0020
     94  N        -10.0000   40.8700   20.8160 N.am   69  HIS69      -0.1976
     95  CA       -10.4560   40.2320   22.0310 C.3    69  HIS69       0.1656
     96  C         -9.5280   40.5260   23.2350 C.2    69  HIS69       0.2291
     97  O         -9.9780   40.2620   24.3660 O.2    69  HIS69      -0.2864
     98  CB       -10.5310   38.7060   21.8770 C.3    69  HIS69       0.0771
     99  CG       -11.4990   38.2140   20.8400 C.ar   69  HIS69       0.0820
    100  ND1      -11.1340   38.0710   19.5190 N.ar   69  HIS69      -0.2267
    101  CD2      -12.7790   37.7850   20.9080 C.ar   69  HIS69       0.1154
    102  CE1      -12.1910   37.6060   18.8300 C.ar   69  HIS69       0.1986
    103  NE2      -13.2130   37.4150   19.6530 N.ar   69  HIS69      -0.2212
    104  N         -7.8430   41.8490   26.4080 N.3    71  ARG71      -0.1245
    105  CA        -8.2220   42.8540   27.4020 C.3    71  ARG71       0.1563
    106  C         -6.9400   43.3700   28.0620 C.2    71  ARG71       0.2260
    107  O         -7.0130   44.0120   29.0910 O.2    71  ARG71      -0.2867
    108  CB        -9.2210   42.2440   28.3640 C.3    71  ARG71       0.0307
    109  CG        -9.9070   40.9840   27.8610 C.3    71  ARG71       0.0489
    110  CD       -10.7140   40.3150   28.9620 C.3    71  ARG71       0.2205
    111  NE       -10.4440   38.8830   29.0460 N.pl3  71  ARG71      -0.0865
    112  CZ       -11.3310   37.9350   28.7760 C.cat  71  ARG71       0.5346
    113  NH1      -12.5610   38.2600   28.3990 N.pl3  71  ARG71       0.1354
    114  NH2      -10.9930   36.6570   28.8800 N.pl3  71  ARG71       0.1354
    115  N        -11.9570   45.8030   20.9550 N.3    79  CYS79      -0.1221
    116  CA       -13.3970   45.6980   21.1970 C.3    79  CYS79       0.1808
    117  C        -13.6650   45.3000   22.6430 C.2    79  CYS79       0.2601
    118  O        -14.4880   45.9390   23.3050 O.2    79  CYS79      -0.2717
    119  CB       -14.0470   44.6170   20.3220 C.3    79  CYS79       0.0970
    120  SG       -13.5590   44.6420   18.5510 S.3    79  CYS79      -0.0800
    121  N        -13.0030   44.2260   23.0940 N.am   80  LEU80      -0.1979
    122  CA       -13.3400   43.7230   24.4350 C.3    80  LEU80       0.1596
    123  C        -12.8140   44.6480   25.5140 C.2    80  LEU80       0.2287
    124  O        -13.4200   44.6920   26.5950 O.2    80  LEU80      -0.2864
    125  CB       -12.7980   42.2980   24.6400 C.3    80  LEU80       0.0297
    126  CG       -13.6810   41.1660   24.1830 C.3    80  LEU80       0.0022
    127  CD1      -14.8730   41.0410   25.1340 C.3    80  LEU80       0.0001
    128  CD2      -14.1910   41.3780   22.7840 C.3    80  LEU80       0.0001
    129  N        -15.5370   47.3540   25.6360 N.3    83  HIS83      -0.1241
    130  CA       -16.7920   46.7860   26.1370 C.3    83  HIS83       0.1621
    131  C        -16.6920   46.4140   27.6130 C.2    83  HIS83       0.2264
    132  O        -17.7130   46.5450   28.3000 O.2    83  HIS83      -0.2867
    133  CB       -17.1700   45.5600   25.2760 C.3    83  HIS83       0.0745
    134  CG       -17.7270   45.9710   23.9520 C.ar   83  HIS83       0.0817
    135  ND1      -18.3180   44.9900   23.1670 N.ar   83  HIS83      -0.2268
    136  CD2      -17.8540   47.1500   23.3000 C.ar   83  HIS83       0.1154
    137  CE1      -18.7620   45.5620   22.0660 C.ar   83  HIS83       0.1986
    138  NE2      -18.5010   46.8740   22.0880 N.ar   83  HIS83      -0.2212
    139  N        -22.3690   42.3240   25.2080 N.3    97  LEU97      -0.1231
    140  CA       -21.1490   42.9640   24.7150 C.3    97  LEU97       0.1693
    141  C        -19.8520   42.2090   24.9980 C.2    97  LEU97       0.2593
    142  O        -18.7920   42.5460   24.4350 O.2    97  LEU97      -0.2718
    143  CB       -20.9950   44.3720   25.3220 C.3    97  LEU97       0.0284
    144  CG       -22.1060   45.3830   25.0110 C.3    97  LEU97       0.0019
    145  CD1      -21.6330   46.7710   25.4640 C.3    97  LEU97       0.0001
    146  CD2      -22.6050   45.3570   23.6080 C.3    97  LEU97       0.0001
    147  N        -19.8940   41.2010   25.8780 N.am   98  THR98      -0.1939
    148  CA       -18.6390   40.5100   26.1860 C.3    98  THR98       0.2028
    149  C        -18.8080   39.0040   26.1370 C.2    98  THR98       0.2643
    150  O        -17.7860   38.3010   26.2960 O.2    98  THR98      -0.2714
    151  CB       -18.0460   40.8980   27.5600 C.3    98  THR98       0.1808
    152  OG1      -18.8890   40.4660   28.6590 O.3    98  THR98      -0.2208
    153  CG2      -17.8310   42.4120   27.6520 C.3    98  THR98       0.0379
    154  N        -20.0100   38.4460   25.9570 N.am   99  GLY99      -0.1939
    155  CA       -20.0980   36.9920   25.9710 C.3    99  GLY99       0.2014
    156  C        -19.4970   36.3340   24.7440 C.2    99  GLY99       0.2639
    157  O        -19.5730   36.8360   23.6120 O.2    99  GLY99      -0.2714
    158  N        -18.9610   35.1360   24.9740 N.am  100  CYS100     -0.1967
    159  CA       -18.3730   34.3670   23.8810 C.3   100  CYS100      0.1712
    160  C        -19.4530   33.6050   23.1180 C.2   100  CYS100      0.2296
    161  O        -19.1350   33.2010   22.0150 O.2   100  CYS100     -0.2864
    162  CB       -17.3010   33.3690   24.4000 C.3   100  CYS100      0.0983
    163  SG       -16.1230   34.1150   25.5640 S.3   100  CYS100     -0.0798
    164  N        -24.0300   36.3190   22.4600 N.3   103  SER103     -0.1217
    165  CA       -23.7470   37.7560   22.5820 C.3   103  SER103      0.1889
    166  C        -24.1930   38.4340   21.3090 C.2   103  SER103      0.2288
    167  O        -24.6390   37.7760   20.3610 O.2   103  SER103     -0.2866
    168  CB       -22.2700   37.9900   22.8640 C.3   103  SER103      0.2089
    169  OG       -21.4780   37.6200   21.7640 O.3   103  SER103     -0.2183
    170  N        -22.1380   39.9100   19.3520 N.3   105  CYS105     -0.1221
    171  CA       -21.0980   39.6030   18.3480 C.3   105  CYS105      0.1808
    172  C        -21.1950   38.1610   17.8630 C.2   105  CYS105      0.2601
    173  O        -20.9440   37.8560   16.6950 O.2   105  CYS105     -0.2717
    174  CB       -19.7260   39.7970   18.9870 C.3   105  CYS105      0.0970
    175  SG       -19.5160   41.4670   19.6400 S.3   105  CYS105     -0.0800
    176  N        -21.4850   37.2470   18.8320 N.am  106  HIS106     -0.1975
    177  CA       -21.5380   35.8150   18.5370 C.3   106  HIS106      0.1656
    178  C        -22.9150   35.3190   18.9770 C.2   106  HIS106      0.2291
    179  O        -23.0710   34.7460   20.0450 O.2   106  HIS106     -0.2864
    180  CB       -20.4380   35.0580   19.2500 C.3   106  HIS106      0.0771
    181  CG       -19.0250   35.3940   18.8870 C.ar  106  HIS106      0.0820
    182  ND1      -18.5170   35.1850   17.6090 N.ar  106  HIS106     -0.2267
    183  CD2      -18.0170   35.9200   19.6380 C.ar  106  HIS106      0.1154
    184  CE1      -17.2300   35.5800   17.6150 C.ar  106  HIS106      0.1986
    185  NE2      -16.9000   36.0220   18.8340 N.ar  106  HIS106     -0.2212
@<TRIPOS>BOND
     1    49    48    1
     2    15    14    2
     3    11    10    2
     4    48    50    1
     5    48    47    1
     6    14    13    1
     7    14    18   am
     8    13    16    1
     9    13    12    1
    10     1     2    1
    11    47    44    1
    12    10    12   am
    13    10     9    1
    14     3     2    1
    15     3     4    2
    16    16    17    1
    17     2     5    1
    18     8     9    1
    19    18    19    1
    20    19    20    1
    21    19    22    1
    22    43    44    1
    23    57    55    1
    24    21    20    2
    25    44    45    1
    26    20    27   am
    27    30    29    2
    28    23    22    1
    29    23    24    1
    30    29    28    1
    31    27    28    1
    32    74    72    1
    33     5     7    1
    34     5     6    1
    35    39    38    2
    36    56    55    1
    37    25    24    2
    38    45    46    2
    39    45    51   am
    40    28    31    1
    41    24    26   am
    42    36    37    1
    43    55    52    1
    44    51    52    1
    45    38    37    1
    46    73    72    1
    47    72    71    1
    48    52    53    1
    49    71    68    1
    50    37    40    1
    51    31    32    1
    52    67    68    1
    53    32    33    1
    54    68    69    1
    55    53    54    2
    56    40    42    1
    57    40    41    1
    58    69    75   am
    59    69    70    2
    60    33    34    1
    61    75    76    1
    62    93    91    1
    63    34    35    1
    64   173   172    2
    65    76    79    1
    66    76    77    1
    67    79    80    1
    68   182   184   ar
    69   182   181   ar
    70   184   185   ar
    71   172   171    1
    72   172   176   am
    73    91    92    1
    74    91    88    1
    75    58    59    1
    76    77    78    2
    77   171   174    1
    78   171   170    1
    79    81    80   ar
    80    81    83   ar
    81    65    64    1
    82    65    66    1
    83    87    88    1
    84    80    82   ar
    85   177   176    1
    86   177   178    1
    87   177   180    1
    88    64    63    1
    89   120   119    1
    90   102   100   ar
    91   102   103   ar
    92   185   183   ar
    93    88    89    1
    94   181   180    1
    95   181   183   ar
    96   178   179    2
    97   174   175    1
    98    59    60    1
    99    59    62    1
   100   100    99   ar
   101    83    85   ar
   102    60    61    2
   103   103   101   ar
   104    63    62    1
   105    82    84   ar
   106    89    94   am
   107    89    90    2
   108   119   116    1
   109   167   166    2
   110    85    84   ar
   111    85    86    1
   112    94    95    1
   113    99   101   ar
   114    99    98    1
   115   115   116    1
   116   116   117    1
   117   166   165    1
   118   169   168    1
   119    98    95    1
   120   161   160    2
   121    95    96    1
   122   137   138   ar
   123   137   135   ar
   124   138   136   ar
   125   164   165    1
   126   165   168    1
   127   117   121   am
   128   117   118    2
   129   128   126    1
   130   121   122    1
   131   160   159    1
   132   135   134   ar
   133    96    97    2
   134   136   134   ar
   135   146   144    1
   136   157   156    2
   137   159   162    1
   138   159   158    1
   139   134   133    1
   140   126   125    1
   141   126   127    1
   142   162   163    1
   143   142   141    2
   144   122   125    1
   145   122   123    1
   146   140   141    1
   147   140   139    1
   148   140   143    1
   149   156   158   am
   150   156   155    1
   151   141   147   am
   152   144   143    1
   153   144   145    1
   154   133   130    1
   155   123   124    2
   156   129   130    1
   157   147   148    1
   158   154   155    1
   159   154   149   am
   160   149   148    1
   161   149   150    2
   162   130   131    1
   163   148   151    1
   164   104   105    1
   165   105   106    1
   166   105   108    1
   167   151   153    1
   168   151   152    1
   169   131   132    2
   170   109   108    1
   171   109   110    1
   172   106   107    2
   173   113   112    1
   174   112   114    1
   175   112   111    2
   176   110   111    1
