@<TRIPOS>MOLECULE
tmp/1up9A02.pdb
 172 163 0 0 0
SMALL
GASTEIGER

@<TRIPOS>ATOM
      1  N        -16.7360   41.4440    9.6710 N.3    11  VAL11      -0.1245
      2  CA       -15.3600   41.3340   10.1380 C.3    11  VAL11       0.1561
      3  C        -15.0270   39.8420   10.0370 C.2    11  VAL11       0.2260
      4  O        -15.4750   39.0390   10.8510 O.2    11  VAL11      -0.2867
      5  CB       -15.1860   41.8280   11.5780 C.3    11  VAL11       0.0252
      6  CG1      -13.6860   41.8570   11.9200 C.3    11  VAL11       0.0019
      7  CG2      -15.7600   43.2110   11.8080 C.3    11  VAL11       0.0019
      8  N        -18.0410   38.1370   12.0950 N.3    18  VAL18      -0.1231
      9  CA       -18.8550   38.8720   13.0640 C.3    18  VAL18       0.1692
     10  C        -19.2940   40.1540   12.3470 C.2    18  VAL18       0.2592
     11  O        -18.4810   40.7990   11.6820 O.2    18  VAL18      -0.2718
     12  CB       -18.0150   39.1140   14.3220 C.3    18  VAL18       0.0266
     13  CG1      -18.6420   40.2400   15.1690 C.3    18  VAL18       0.0020
     14  CG2      -17.8330   37.8340   15.1510 C.3    18  VAL18       0.0020
     15  N        -20.5730   40.4800   12.5410 N.am   19  MET19      -0.1965
     16  CA       -21.0250   41.7400   11.9740 C.3    19  MET19       0.1736
     17  C        -20.7580   42.8950   12.9420 C.2    19  MET19       0.2616
     18  O        -21.0490   42.8030   14.1500 O.2    19  MET19      -0.2715
     19  CB       -22.5090   41.6740   11.6270 C.3    19  MET19       0.0427
     20  CG       -22.8000   40.5080   10.6650 C.3    19  MET19       0.0599
     21  SD       -21.9100   40.5970    9.0760 S.3    19  MET19      -0.1393
     22  CE       -22.7360   41.9670    8.2660 C.3    19  MET19       0.0692
     23  N        -20.2150   43.9700   12.3660 N.am   20  PHE20      -0.1960
     24  CA       -19.8780   45.1360   13.1800 C.3    20  PHE20       0.1756
     25  C        -20.8460   46.2840   12.8380 C.2    20  PHE20       0.2461
     26  O        -20.8740   46.7380   11.6620 O.2    20  PHE20      -0.2730
     27  CB       -18.4110   45.5670   12.9610 C.3    20  PHE20       0.0574
     28  CG       -18.1520   46.8980   13.6810 C.ar   20  PHE20      -0.0200
     29  CD1      -17.9860   46.9640   15.0490 C.ar   20  PHE20      -0.0042
     30  CD2      -18.0960   48.0720   12.9110 C.ar   20  PHE20      -0.0042
     31  CE1      -17.7850   48.1740   15.6670 C.ar   20  PHE20      -0.0003
     32  CE2      -17.8840   49.2930   13.5280 C.ar   20  PHE20      -0.0003
     33  CZ       -17.7250   49.3380   14.9050 C.ar   20  PHE20      -0.0000
     34  N        -21.6160   46.7850   13.7890 N.am   21  PRO21      -0.2727
     35  CA       -22.4930   47.9300   13.5370 C.3    21  PRO21       0.1402
     36  C        -21.8570   49.2600   13.9200 C.2    21  PRO21       0.2269
     37  O        -21.4770   49.4350   15.1080 O.2    21  PRO21      -0.2865
     38  CB       -23.6780   47.6420   14.5030 C.3    21  PRO21       0.0296
     39  CG       -23.0770   46.9360   15.6720 C.3    21  PRO21       0.0237
     40  CD       -21.7920   46.3030   15.1830 C.3    21  PRO21       0.0939
     41  N        -24.1100   52.1230   16.9990 N.3    24  PRO24      -0.2102
     42  CA       -23.8960   52.2340   18.4400 C.3    24  PRO24       0.1504
     43  C        -22.6100   52.9570   18.8090 C.2    24  PRO24       0.2575
     44  O        -22.4620   53.3520   19.9810 O.2    24  PRO24      -0.2718
     45  CB       -23.8640   50.7610   18.9030 C.3    24  PRO24       0.0282
     46  CG       -24.7140   50.0640   17.8820 C.3    24  PRO24       0.0208
     47  CD       -24.2900   50.7030   16.5740 C.3    24  PRO24       0.0893
     48  N        -21.7080   53.0550   17.8210 N.am   25  HIS25      -0.1976
     49  CA       -20.3900   53.6370   18.0800 C.3    25  HIS25       0.1656
     50  C        -20.3220   55.0470   17.5490 C.2    25  HIS25       0.2291
     51  O        -19.2140   55.5880   17.4040 O.2    25  HIS25      -0.2864
     52  CB       -19.3200   52.7330   17.4340 C.3    25  HIS25       0.0771
     53  CG       -19.3550   51.3260   17.9680 C.ar   25  HIS25       0.0820
     54  ND1      -20.0440   50.3120   17.3060 N.ar   25  HIS25      -0.2267
     55  CD2      -18.8800   50.7670   19.0860 C.ar   25  HIS25       0.1154
     56  CE1      -19.9450   49.1930   17.9860 C.ar   25  HIS25       0.1986
     57  NE2      -19.2430   49.4470   19.1030 N.ar   25  HIS25      -0.2212
     58  N        -18.0590   57.3880   19.4520 N.3    28  VAL28      -0.1245
     59  CA       -16.6630   56.9700   19.5310 C.3    28  VAL28       0.1561
     60  C        -15.8980   57.6080   18.3670 C.2    28  VAL28       0.2260
     61  O        -16.3340   57.5250   17.1980 O.2    28  VAL28      -0.2867
     62  CB       -16.5140   55.4530   19.4780 C.3    28  VAL28       0.0252
     63  CG1      -15.0440   55.0390   19.5630 C.3    28  VAL28       0.0019
     64  CG2      -17.2980   54.8290   20.6270 C.3    28  VAL28       0.0019
     65  N        -10.3040   55.9870   17.2680 N.3    32  THR32      -0.1203
     66  CA       -10.1160   54.9810   18.3230 C.3    32  THR32       0.1994
     67  C         -9.9040   53.6050   17.7250 C.2    32  THR32       0.2618
     68  O         -9.0800   52.8080   18.2090 O.2    32  THR32      -0.2717
     69  CB       -11.3750   54.9740   19.1920 C.3    32  THR32       0.1784
     70  OG1      -11.3740   56.2520   19.8760 O.3    32  THR32      -0.2211
     71  CG2      -11.3310   53.8160   20.1830 C.3    32  THR32       0.0376
     72  N        -10.6710   53.3300   16.6590 N.am   33  CYS33      -0.1969
     73  CA       -10.5970   52.0250   15.9880 C.3    33  CYS33       0.1712
     74  C         -9.6850   52.0760   14.7630 C.2    33  CYS33       0.2296
     75  O         -8.7740   51.2750   14.6470 O.2    33  CYS33      -0.2864
     76  CB       -12.0120   51.5720   15.5920 C.3    33  CYS33       0.0983
     77  SG       -13.0210   51.4340   17.0940 S.3    33  CYS33      -0.0798
     78  N         -9.1670   45.9560    9.0190 N.3    46  CYS46      -0.1235
     79  CA        -8.2070   45.6530   10.0700 C.3    46  CYS46       0.1677
     80  C         -7.3100   44.4940    9.6780 C.2    46  CYS46       0.2270
     81  O         -6.1120   44.4960   10.0130 O.2    46  CYS46      -0.2867
     82  CB        -8.8990   45.3400   11.4000 C.3    46  CYS46       0.0956
     83  SG       -10.2820   46.4040   11.8470 S.3    46  CYS46      -0.0801
     84  N         -8.9580   42.1980   18.5130 N.3    68  VAL68      -0.1245
     85  CA       -10.3890   42.2930   18.8460 C.3    68  VAL68       0.1561
     86  C        -10.6110   41.9460   20.2980 C.2    68  VAL68       0.2260
     87  O        -11.4070   42.5860   20.9980 O.2    68  VAL68      -0.2867
     88  CB       -11.1240   41.3240   17.9030 C.3    68  VAL68       0.0252
     89  CG1      -12.5230   41.0080   18.4270 C.3    68  VAL68       0.0019
     90  CG2      -11.1390   41.9000   16.4890 C.3    68  VAL68       0.0019
     91  N         -7.2270   50.6240   21.4500 N.3    77  THR77      -0.1203
     92  CA        -8.3150   50.0190   22.1950 C.3    77  THR77       0.1994
     93  C         -8.9610   48.9160   21.3710 C.2    77  THR77       0.2619
     94  O         -9.4360   49.1240   20.2390 O.2    77  THR77      -0.2717
     95  CB        -9.3670   51.1100   22.5150 C.3    77  THR77       0.1784
     96  OG1       -8.7190   52.1070   23.3460 O.3    77  THR77      -0.2211
     97  CG2      -10.5350   50.5760   23.3050 C.3    77  THR77       0.0376
     98  N         -9.0050   47.7120   21.9330 N.am   78  SER78      -0.1937
     99  CA        -9.7190   46.5910   21.3600 C.3    78  SER78       0.2055
    100  C        -11.2030   46.6210   21.7230 C.2    78  SER78       0.2643
    101  O        -11.6910   47.2960   22.6130 O.2    78  SER78      -0.2714
    102  CB        -9.1260   45.2510   21.8620 C.3    78  SER78       0.2130
    103  OG        -9.5780   45.1310   23.2180 O.3    78  SER78      -0.2179
    104  N        -11.9570   45.8030   20.9550 N.am   79  CYS79      -0.1967
    105  CA       -13.3970   45.6980   21.1970 C.3    79  CYS79       0.1712
    106  C        -13.6650   45.3000   22.6430 C.2    79  CYS79       0.2296
    107  O        -14.4880   45.9390   23.3050 O.2    79  CYS79      -0.2864
    108  CB       -14.0470   44.6170   20.3220 C.3    79  CYS79       0.0983
    109  SG       -13.5590   44.6420   18.5510 S.3    79  CYS79      -0.0798
    110  N        -12.7800   48.0190   25.4670 N.3    82  CYS82      -0.1221
    111  CA       -13.7800   49.0650   25.7000 C.3    82  CYS82       0.1808
    112  C        -15.0690   48.4800   26.1900 C.2    82  CYS82       0.2601
    113  O        -15.6670   49.0030   27.1350 O.2    82  CYS82      -0.2717
    114  CB       -14.0440   49.8650   24.3950 C.3    82  CYS82       0.0970
    115  SG       -15.2620   51.1640   24.7700 S.3    82  CYS82      -0.0800
    116  N        -15.5370   47.3540   25.6360 N.am   83  HIS83      -0.1975
    117  CA       -16.7920   46.7860   26.1370 C.3    83  HIS83       0.1656
    118  C        -16.6920   46.4140   27.6130 C.2    83  HIS83       0.2291
    119  O        -17.7130   46.5450   28.3000 O.2    83  HIS83      -0.2864
    120  CB       -17.1700   45.5600   25.2760 C.3    83  HIS83       0.0771
    121  CG       -17.7270   45.9710   23.9520 C.ar   83  HIS83       0.0820
    122  ND1      -18.3180   44.9900   23.1670 N.ar   83  HIS83      -0.2267
    123  CD2      -17.8540   47.1500   23.3000 C.ar   83  HIS83       0.1154
    124  CE1      -18.7620   45.5620   22.0660 C.ar   83  HIS83       0.1986
    125  NE2      -18.5010   46.8740   22.0880 N.ar   83  HIS83      -0.2212
    126  N        -17.6140   49.4950   29.3450 N.3    86  VAL86      -0.1245
    127  CA       -19.0300   49.8050   29.1660 C.3    86  VAL86       0.1561
    128  C        -19.8730   48.9270   30.1010 C.2    86  VAL86       0.2260
    129  O        -20.7760   49.4580   30.7110 O.2    86  VAL86      -0.2867
    130  CB       -19.4380   49.6040   27.6950 C.3    86  VAL86       0.0252
    131  CG1      -20.9350   49.7300   27.4800 C.3    86  VAL86       0.0019
    132  CG2      -18.7250   50.6170   26.7730 C.3    86  VAL86       0.0019
    133  N        -22.7390   49.5650   32.7110 N.3    90  LYS90      -0.1245
    134  CA       -24.0620   49.0920   32.2870 C.3    90  LYS90       0.1561
    135  C        -24.0930   47.5720   32.3510 C.2    90  LYS90       0.2260
    136  O        -23.9810   46.8710   31.3590 O.2    90  LYS90      -0.2867
    137  CB       -24.3650   49.5640   30.8520 C.3    90  LYS90       0.0271
    138  CG       -24.4000   51.0960   30.8050 C.3    90  LYS90       0.0035
    139  CD       -24.8440   51.6280   29.4810 C.3    90  LYS90       0.0206
    140  CE       -26.2960   51.3570   29.1460 C.3    90  LYS90       0.1093
    141  NZ       -26.6910   52.1470   27.9380 N.3    90  LYS90      -0.1314
    142  N        -25.6730   44.8590   30.1530 N.3    93  LEU93      -0.1245
    143  CA       -25.1710   44.5310   28.7970 C.3    93  LEU93       0.1561
    144  C        -24.0360   43.5170   28.8180 C.2    93  LEU93       0.2260
    145  O        -23.4120   43.2920   27.7780 O.2    93  LEU93      -0.2867
    146  CB       -24.6590   45.8260   28.1370 C.3    93  LEU93       0.0270
    147  CG       -25.7720   46.8790   27.9010 C.3    93  LEU93       0.0019
    148  CD1      -25.2610   48.1330   27.2460 C.3    93  LEU93       0.0001
    149  CD2      -26.8660   46.2720   27.0300 C.3    93  LEU93       0.0001
    150  N        -22.3690   42.3240   25.2080 N.3    97  LEU97      -0.1245
    151  CA       -21.1490   42.9640   24.7150 C.3    97  LEU97       0.1561
    152  C        -19.8520   42.2090   24.9980 C.2    97  LEU97       0.2260
    153  O        -18.7920   42.5460   24.4350 O.2    97  LEU97      -0.2867
    154  CB       -20.9950   44.3720   25.3220 C.3    97  LEU97       0.0270
    155  CG       -22.1060   45.3830   25.0110 C.3    97  LEU97       0.0019
    156  CD1      -21.6330   46.7710   25.4640 C.3    97  LEU97       0.0001
    157  CD2      -22.6050   45.3570   23.6080 C.3    97  LEU97       0.0001
    158  N        -24.0840   39.7680   21.2560 N.3   104  LYS104     -0.1231
    159  CA       -24.4360   40.4660   20.0100 C.3   104  LYS104      0.1693
    160  C        -23.3750   40.2140   18.9440 C.2   104  LYS104      0.2592
    161  O        -23.6420   40.2910   17.7710 O.2   104  LYS104     -0.2718
    162  CB       -24.6240   41.9640   20.2780 C.3   104  LYS104      0.0285
    163  CG       -25.8460   42.2340   21.1750 C.3   104  LYS104      0.0035
    164  CD       -27.1490   41.8390   20.4800 C.3   104  LYS104      0.0206
    165  CE       -28.3450   42.2950   21.3470 C.3   104  LYS104      0.1093
    166  NZ       -29.6310   41.9900   20.6560 N.3   104  LYS104     -0.1314
    167  N        -22.1380   39.9100   19.3520 N.am  105  CYS105     -0.1970
    168  CA       -21.0980   39.6030   18.3480 C.3   105  CYS105      0.1712
    169  C        -21.1950   38.1610   17.8630 C.2   105  CYS105      0.2296
    170  O        -20.9440   37.8560   16.6950 O.2   105  CYS105     -0.2864
    171  CB       -19.7260   39.7970   18.9870 C.3   105  CYS105      0.0983
    172  SG       -19.5160   41.4670   19.6400 S.3   105  CYS105     -0.0798
@<TRIPOS>BOND
     1    22    21    1
     2    78    79    1
     3    21    20    1
     4     1     2    1
     5    80    81    2
     6    80    79    1
     7     3     2    1
     8     3     4    2
     9    79    82    1
    10     2     5    1
    11    20    19    1
    12    82    83    1
    13     5     7    1
    14     5     6    1
    15    19    16    1
    16    26    25    2
    17    11    10    2
    18    16    15    1
    19    16    17    1
    20     8     9    1
    21    10    15   am
    22    10     9    1
    23    23    17   am
    24    23    24    1
    25    25    24    1
    26    25    34   am
    27    30    32   ar
    28    30    28   ar
    29    17    18    2
    30    27    24    1
    31    27    28    1
    32     9    12    1
    33    32    33   ar
    34    35    34    1
    35    35    36    1
    36    35    38    1
    37    28    29   ar
    38    34    40    1
    39    36    37    2
    40    12    14    1
    41    12    13    1
    42    38    39    1
    43    75    74    2
    44    74    73    1
    45    33    31   ar
    46    29    31   ar
    47    40    39    1
    48    76    73    1
    49    76    77    1
    50    73    72    1
    51    90    88    1
    52    47    41    1
    53    47    46    1
    54    72    67   am
    55   170   169    2
    56    41    42    1
    57    61    60    2
    58    65    66    1
    59    54    53   ar
    60    54    56   ar
    61    51    50    2
    62    52    53    1
    63    52    49    1
    64    50    49    1
    65    67    68    2
    66    67    66    1
    67   161   160    2
    68    48    49    1
    69    48    43   am
    70   169   168    1
    71    46    45    1
    72    88    89    1
    73    88    85    1
    74    53    55   ar
    75    56    57   ar
    76    66    69    1
    77   168   171    1
    78   168   167    1
    79    60    59    1
    80    42    43    1
    81    42    45    1
    82    84    85    1
    83   109   108    1
    84    43    44    2
    85    85    86    1
    86   160   167   am
    87   160   159    1
    88   171   172    1
    89    55    57   ar
    90    69    70    1
    91    69    71    1
    92    58    59    1
    93    62    59    1
    94    62    63    1
    95    62    64    1
    96   159   162    1
    97   159   158    1
    98    94    93    2
    99   162   163    1
   100    86    87    2
   101   108   105    1
   102   164   163    1
   103   164   165    1
   104   166   165    1
   105   104   105    1
   106   104   100   am
   107   105   106    1
   108    99   100    1
   109    99   102    1
   110    99    98    1
   111    93    98   am
   112    93    92    1
   113    91    92    1
   114   100   101    2
   115   102   103    1
   116   124   125   ar
   117   124   122   ar
   118   125   123   ar
   119    92    95    1
   120    95    97    1
   121    95    96    1
   122   106   107    2
   123   122   121   ar
   124   123   121   ar
   125   157   155    1
   126   121   120    1
   127   114   115    1
   128   114   111    1
   129   153   152    2
   130   151   152    1
   131   151   150    1
   132   151   154    1
   133   155   154    1
   134   155   156    1
   135   120   117    1
   136   110   111    1
   137   116   117    1
   138   116   112   am
   139   111   112    1
   140   117   118    1
   141   112   113    2
   142   132   130    1
   143   149   147    1
   144   148   147    1
   145   131   130    1
   146   118   119    2
   147   130   127    1
   148   145   144    2
   149   147   146    1
   150   141   140    1
   151   146   143    1
   152   143   144    1
   153   143   142    1
   154   140   139    1
   155   127   126    1
   156   127   128    1
   157   139   138    1
   158   128   129    2
   159   138   137    1
   160   137   134    1
   161   136   135    2
   162   134   135    1
   163   134   133    1
