@<TRIPOS>MOLECULE
tmp/1upfA00.pdb
 80 79 0 0 0
SMALL
GASTEIGER

@<TRIPOS>ATOM
      1  N         -7.2230   94.2660   87.1630 N.3   146  MET146     -0.1245
      2  CA        -8.0520   95.2900   87.7660 C.3   146  MET146      0.1570
      3  C         -7.4750   96.1240   88.8500 C.2   146  MET146      0.2261
      4  O         -6.7120   95.6410   89.6670 O.2   146  MET146     -0.2867
      5  CB        -9.2830   94.6440   88.2810 C.3   146  MET146      0.0387
      6  CG        -9.6720   93.5650   87.3190 C.3   146  MET146      0.0595
      7  SD       -11.2070   93.9630   86.5110 S.3   146  MET146     -0.1393
      8  CE       -12.1250   92.6100   87.2110 C.3   146  MET146      0.0692
      9  N         -9.0620   98.3700   91.5780 N.3   148  ALA148     -0.1245
     10  CA       -10.1440   98.9310   92.4140 C.3   148  ALA148      0.1562
     11  C         -9.6010   99.9200   93.4430 C.2   148  ALA148      0.2260
     12  O         -9.5100  101.0950   93.1740 O.2   148  ALA148     -0.2867
     13  CB       -10.7920   97.8380   93.1990 C.3   148  ALA148      0.0290
     14  N        -16.5270   96.6590   96.6020 N.3   207  TYR207     -0.1227
     15  CA       -15.3310   97.0930   95.8990 C.3   207  TYR207      0.1736
     16  C        -15.0630   96.3900   94.5350 C.2   207  TYR207      0.2595
     17  O        -14.0000   95.8270   94.2260 O.2   207  TYR207     -0.2718
     18  CB       -14.1000   97.1450   96.8290 C.3   207  TYR207      0.0548
     19  CG       -14.4000   97.1670   98.3340 C.ar  207  TYR207     -0.0200
     20  CD1      -14.6800   95.9830   99.0330 C.ar  207  TYR207     -0.0009
     21  CD2      -14.3680   98.3630   99.0700 C.ar  207  TYR207     -0.0009
     22  CE1      -14.9610   95.9910  100.3910 C.ar  207  TYR207      0.0417
     23  CE2      -14.6360   98.3700  100.4370 C.ar  207  TYR207      0.0417
     24  CZ       -14.9270   97.1740  101.0870 C.ar  207  TYR207      0.1957
     25  OH       -15.2170   97.1260  102.4280 O.3   207  TYR207     -0.2866
     26  N        -16.0760   96.4460   93.6980 N.am  208  TYR208     -0.1962
     27  CA       -16.0030   95.9240   92.3600 C.3   208  TYR208      0.1771
     28  C        -16.1990   97.2030   91.5770 C.2   208  TYR208      0.2619
     29  O        -17.0750   98.0000   91.9190 O.2   208  TYR208     -0.2715
     30  CB       -17.1930   94.9860   92.1360 C.3   208  TYR208      0.0574
     31  CG       -16.8360   93.5570   92.3870 C.ar  208  TYR208     -0.0198
     32  CD1      -15.9040   92.9480   91.5760 C.ar  208  TYR208     -0.0009
     33  CD2      -17.3840   92.8300   93.4340 C.ar  208  TYR208     -0.0009
     34  CE1      -15.5120   91.6490   91.7880 C.ar  208  TYR208      0.0417
     35  CE2      -17.0180   91.5170   93.6520 C.ar  208  TYR208      0.0417
     36  CZ       -16.0750   90.9290   92.8140 C.ar  208  TYR208      0.1957
     37  OH       -15.6190   89.6380   92.9590 O.3   208  TYR208     -0.2866
     38  N        -15.3920   97.4440   90.5530 N.am  209  ILE209     -0.1977
     39  CA       -15.5790   98.6300   89.7080 C.3   209  ILE209      0.1596
     40  C        -16.8680   98.4900   88.9160 C.2   209  ILE209      0.2287
     41  O        -17.2930   97.3840   88.5730 O.2   209  ILE209     -0.2864
     42  CB       -14.6260   98.8140   88.6740 C.3   209  ILE209      0.0276
     43  CG1      -13.2680   99.2860   89.3240 C.3   209  ILE209      0.0022
     44  CG2      -15.0460   99.7360   87.4150 C.3   209  ILE209      0.0022
     45  CD1      -12.0980   98.0530   89.1520 C.3   209  ILE209      0.0001
     46  N        -16.4410   94.9270   84.9820 N.3   213  ILE213     -0.1231
     47  CA       -16.3520   93.6670   84.2480 C.3   213  ILE213      0.1692
     48  C        -16.7010   92.4250   85.0490 C.2   213  ILE213      0.2593
     49  O        -16.7600   91.3310   84.4920 O.2   213  ILE213     -0.2718
     50  CB       -14.9390   93.4730   83.7530 C.3   213  ILE213      0.0266
     51  CG1      -14.8670   92.3730   82.7190 C.3   213  ILE213      0.0019
     52  CG2      -14.1060   92.9080   84.8760 C.3   213  ILE213      0.0020
     53  CD1      -13.7150   91.4290   82.9870 C.3   213  ILE213      0.0001
     54  N        -16.9100   92.5660   86.3480 N.am  214  GLY214     -0.1942
     55  CA       -17.2010   91.4100   87.1920 C.3   214  GLY214      0.2014
     56  C        -15.8780   90.8980   87.7530 C.2   214  GLY214      0.2639
     57  O        -14.9080   91.6360   87.8980 O.2   214  GLY214     -0.2714
     58  N        -15.8230   89.6240   88.0680 N.am  215  ASP215     -0.1957
     59  CA       -14.6070   89.1000   88.6530 C.3   215  ASP215      0.1840
     60  C        -13.8020   88.5980   87.4940 C.2   215  ASP215      0.2622
     61  O        -14.1310   87.5780   86.8680 O.2   215  ASP215     -0.2715
     62  CB       -14.9040   87.9470   89.6200 C.3   215  ASP215      0.1450
     63  CG       -13.7010   87.5980   90.4780 C.2   215  ASP215      0.3671
     64  OD1      -12.8110   86.8480   90.0000 O.co2 215  ASP215     -0.2456
     65  OD2      -13.6000   88.1950   91.5800 O.co2 215  ASP215     -0.2456
     66  N        -12.7690   89.3490   87.1750 N.am  216  PHE216     -0.1960
     67  CA       -11.9690   88.9930   86.0350 C.3   216  PHE216      0.1771
     68  C        -11.3550   87.5730   86.0660 C.2   216  PHE216      0.2620
     69  O        -11.6190   86.7280   85.1590 O.2   216  PHE216     -0.2715
     70  CB       -10.9390   90.0680   85.7780 C.3   216  PHE216      0.0574
     71  CG       -10.2190   89.8810   84.5010 C.ar  216  PHE216     -0.0200
     72  CD1       -9.1420   89.0140   84.4380 C.ar  216  PHE216     -0.0042
     73  CD2      -10.6310   90.5310   83.3590 C.ar  216  PHE216     -0.0042
     74  CE1       -8.4510   88.8250   83.2630 C.ar  216  PHE216     -0.0003
     75  CE2       -9.9540   90.3260   82.1690 C.ar  216  PHE216     -0.0003
     76  CZ        -8.8730   89.4620   82.1230 C.ar  216  PHE216     -0.0000
     77  N        -10.5870   87.3370   87.1370 N.am  217  GLY217     -0.1954
     78  CA        -9.9100   86.0560   87.4020 C.3   217  GLY217      0.1869
     79  C        -10.8010   84.8060   87.3200 C.2   217  GLY217      0.2309
     80  O        -10.4200   83.7900   86.7110 O.2   217  GLY217     -0.2863
@<TRIPOS>BOND
     1    76    75   ar
     2    76    74   ar
     3    75    73   ar
     4    51    53    1
     5    51    50    1
     6    74    72   ar
     7    73    71   ar
     8    50    47    1
     9    50    52    1
    10    47    46    1
    11    47    48    1
    12    72    71   ar
    13    49    48    2
    14    71    70    1
    15    48    54   am
    16    69    68    2
    17    70    67    1
    18    67    68    1
    19    67    66    1
    20    68    77   am
    21    54    55    1
    22     7     8    1
    23     7     6    1
    24    80    79    2
    25    61    60    2
    26    77    78    1
    27     1     2    1
    28    66    60   am
    29    55    56    1
    30     6     5    1
    31    79    78    1
    32    44    42    1
    33    60    59    1
    34    56    57    2
    35    56    58   am
    36     2     5    1
    37     2     3    1
    38    58    59    1
    39    41    40    2
    40    59    62    1
    41    42    43    1
    42    42    39    1
    43     3     4    2
    44    40    39    1
    45    45    43    1
    46    62    63    1
    47    39    38    1
    48    64    63   ar
    49    63    65   ar
    50    38    28   am
    51    32    34   ar
    52    32    31   ar
    53    28    29    2
    54    28    27    1
    55     9    10    1
    56    34    36   ar
    57    30    27    1
    58    30    31    1
    59    27    26    1
    60    31    33   ar
    61    10    13    1
    62    10    11    1
    63    36    37    1
    64    36    35   ar
    65    12    11    2
    66    33    35   ar
    67    26    16   am
    68    17    16    2
    69    16    15    1
    70    15    14    1
    71    15    18    1
    72    18    19    1
    73    19    20   ar
    74    19    21   ar
    75    20    22   ar
    76    21    23   ar
    77    22    24   ar
    78    23    24   ar
    79    24    25    1
