@<TRIPOS>MOLECULE
tmp/1upjA00.pdb
 112 105 0 0 0
SMALL
GASTEIGER

@<TRIPOS>ATOM
      1  N          6.5690   28.9840   20.6140 N.3     8  ARG8       -0.1245
      2  CA         6.6110   28.3420   19.2750 C.3     8  ARG8        0.1563
      3  C          6.7530   29.4310   18.1840 C.2     8  ARG8        0.2260
      4  O          5.9840   30.4050   18.1580 O.2     8  ARG8       -0.2867
      5  CB         5.3660   27.4490   19.0590 C.3     8  ARG8        0.0307
      6  CG         5.5390   26.0500   19.7030 C.3     8  ARG8        0.0489
      7  CD         4.3210   25.1330   20.0160 C.3     8  ARG8        0.2205
      8  NE         4.5970   23.8310   19.3850 N.pl3   8  ARG8       -0.0865
      9  CZ         3.8280   22.7390   19.2220 C.cat   8  ARG8        0.5346
     10  NH1        3.0060   22.8500   18.1780 N.pl3   8  ARG8        0.1354
     11  NH2        3.6490   21.7050   20.0630 N.pl3   8  ARG8        0.1354
     12  N          4.7420   26.3610   11.4420 N.3    23  LEU23      -0.1245
     13  CA         5.8440   26.2910   12.4130 C.3    23  LEU23       0.1561
     14  C          7.2280   26.2560   11.7450 C.2    23  LEU23       0.2260
     15  O          7.5070   25.3310   10.9760 O.2    23  LEU23      -0.2867
     16  CB         5.6130   25.0530   13.2990 C.3    23  LEU23       0.0270
     17  CG         6.0400   25.1800   14.7570 C.3    23  LEU23       0.0019
     18  CD1        5.7890   23.8650   15.4710 C.3    23  LEU23       0.0001
     19  CD2        7.5310   25.5180   14.8490 C.3    23  LEU23       0.0001
     20  N         10.6560   25.2420   11.3390 N.3    25  ASP25      -0.1295
     21  CA        11.2840   23.9890   11.8020 C.3    25  ASP25       0.1359
     22  C         12.6520   23.7390   11.1730 C.3    25  ASP25       0.2015
     23  O         12.5870   23.3290   10.0110 O.3    25  ASP25      -0.2188
     24  CB        10.3400   22.8330   11.4670 C.3    25  ASP25       0.1357
     25  CG        10.4700   21.6570   12.3950 C.2    25  ASP25       0.3664
     26  OD1       11.3210   21.6500   13.3040 O.co2  25  ASP25      -0.2456
     27  OD2        9.7140   20.6740   12.2530 O.co2  25  ASP25      -0.2456
     28  N         14.5580   21.6470   12.1940 N.3    27  GLY27      -0.1210
     29  CA        14.8240   20.2100   12.2960 C.3    27  GLY27       0.1956
     30  C         14.4270   19.4260   11.0430 C.2    27  GLY27       0.2612
     31  O         14.8920   18.3080   10.7910 O.2    27  GLY27      -0.2717
     32  N         13.5380   20.0480   10.2960 N.am   28  ALA28      -0.1965
     33  CA        12.8240   19.4410    9.1690 C.3    28  ALA28       0.1728
     34  C         13.5530   19.7590    7.8460 C.2    28  ALA28       0.2616
     35  O         13.7970   20.9280    7.5610 O.2    28  ALA28      -0.2715
     36  CB        11.3890   20.0460    9.1870 C.3    28  ALA28       0.0334
     37  N         13.9450   18.7360    7.0950 N.am   29  ASP29      -0.1957
     38  CA        14.5650   18.8470    5.7230 C.3    29  ASP29       0.1840
     39  C         13.5840   19.3780    4.6690 C.2    29  ASP29       0.2622
     40  O         14.0070   20.1920    3.8230 O.2    29  ASP29      -0.2715
     41  CB        14.9910   17.5320    5.0750 C.3    29  ASP29       0.1450
     42  CG        15.9230   16.7300    5.9290 C.2    29  ASP29       0.3671
     43  OD1       16.8120   17.1830    6.7010 O.co2  29  ASP29      -0.2456
     44  OD2       15.7780   15.5000    5.8620 O.co2  29  ASP29      -0.2456
     45  N         12.3490   18.8460    4.7510 N.am   30  ASP30      -0.1971
     46  CA        11.1440   19.2460    3.9720 C.3    30  ASP30       0.1709
     47  C         10.0130   19.9630    4.7230 C.2    30  ASP30       0.2293
     48  O          9.8050   20.0290    5.9640 O.2    30  ASP30      -0.2864
     49  CB        10.5300   18.0600    3.2300 C.3    30  ASP30       0.1436
     50  CG        11.2600   17.7890    1.9360 C.2    30  ASP30       0.3671
     51  OD1       10.9010   18.3730    0.8930 O.co2  30  ASP30      -0.2456
     52  OD2       12.2130   16.9860    1.9210 O.co2  30  ASP30      -0.2456
     53  N          6.0820   20.2010    5.1220 N.3    32  VAL32      -0.1245
     54  CA         4.8210   19.4260    5.1700 C.3    32  VAL32       0.1561
     55  C          3.6200   20.2370    5.7490 C.2    32  VAL32       0.2260
     56  O          3.6740   20.7780    6.8530 O.2    32  VAL32      -0.2867
     57  CB         5.1350   18.1720    6.0110 C.3    32  VAL32       0.0252
     58  CG1        4.0070   17.1530    6.0500 C.3    32  VAL32       0.0019
     59  CG2        6.4830   17.5290    5.6450 C.3    32  VAL32       0.0019
     60  N          7.1550    9.8540    4.2000 N.3    47  ILE47      -0.1231
     61  CA         8.1300   10.4550    5.1290 C.3    47  ILE47       0.1692
     62  C          8.0320    9.8110    6.5050 C.2    47  ILE47       0.2593
     63  O          7.0260    9.1600    6.8450 O.2    47  ILE47      -0.2718
     64  CB         7.9470   11.9620    5.2930 C.3    47  ILE47       0.0266
     65  CG1        6.5280   12.3070    5.7750 C.3    47  ILE47       0.0019
     66  CG2        8.3820   12.7160    4.0300 C.3    47  ILE47       0.0020
     67  CD1        6.3910   13.7760    6.1830 C.3    47  ILE47       0.0001
     68  N          9.1260    9.9930    7.2280 N.am   48  GLY48      -0.1942
     69  CA         9.2480    9.6080    8.6460 C.3    48  GLY48       0.2014
     70  C          9.4020   10.8220    9.5850 C.2    48  GLY48       0.2639
     71  O          9.9270   11.8790    9.1850 O.2    48  GLY48      -0.2714
     72  N          8.8880   10.6220   10.7980 N.am   49  GLY49      -0.1939
     73  CA         8.9840   11.5420   11.9440 C.3    49  GLY49       0.2014
     74  C          9.1470   10.7280   13.2450 C.2    49  GLY49       0.2638
     75  O          9.3500    9.5010   13.1960 O.2    49  GLY49      -0.2714
     76  N          9.0480   11.4260   14.3750 N.am   50  ILE50      -0.1977
     77  CA         9.2440   10.8150   15.7050 C.3    50  ILE50       0.1596
     78  C          8.4830    9.5060   15.7030 C.2    50  ILE50       0.2287
     79  O          9.0560    8.4050   15.8140 O.2    50  ILE50      -0.2864
     80  CB         8.5750   11.5720   16.8530 C.3    50  ILE50       0.0276
     81  CG1        9.2020   12.9250   17.1550 C.3    50  ILE50       0.0022
     82  CG2        8.5420   10.6560   18.0890 C.3    50  ILE50       0.0022
     83  CD1       10.6260   12.7230   17.6610 C.3    50  ILE50       0.0001
     84  N         -0.1640   15.6540    8.8140 N.3    80  THR80      -0.1204
     85  CA         0.7400   16.1830    9.8600 C.3    80  THR80       0.1979
     86  C         -0.1230   16.8710   10.9210 C.2    80  THR80       0.2460
     87  O         -1.2620   17.2810   10.6380 O.2    80  THR80      -0.2732
     88  CB         1.6940   17.1770    9.2100 C.3    80  THR80       0.1783
     89  OG1        2.5930   17.6940   10.1930 O.3    80  THR80      -0.2211
     90  CG2        0.8750   18.2600    8.5310 C.3    80  THR80       0.0376
     91  N          0.3820   16.9190   12.1620 N.am   81  PRO81      -0.2717
     92  CA        -0.2980   17.5800   13.2970 C.3    81  PRO81       0.1535
     93  C         -0.1120   19.0970   13.1620 C.2    81  PRO81       0.2598
     94  O         -0.9510   19.9240   13.5680 O.2    81  PRO81      -0.2715
     95  CB         0.3990   17.0320   14.5540 C.3    81  PRO81       0.0310
     96  CG         1.7740   16.5280   14.0860 C.3    81  PRO81       0.0237
     97  CD         1.6030   16.2170   12.5900 C.3    81  PRO81       0.0939
     98  N          1.0190   19.4050   12.5480 N.am   82  VAL82      -0.1978
     99  CA         1.4920   20.7790   12.4010 C.3    82  VAL82       0.1596
    100  C          1.9330   21.1010   10.9870 C.2    82  VAL82       0.2287
    101  O          2.5320   20.3160   10.2390 O.2    82  VAL82      -0.2864
    102  CB         2.7210   20.9720   13.2870 C.3    82  VAL82       0.0276
    103  CG1        2.8710   22.4290   13.7260 C.3    82  VAL82       0.0022
    104  CG2        2.8560   19.9810   14.4510 C.3    82  VAL82       0.0022
    105  N          4.6120   22.4710    8.9570 N.3    84  ILE84      -0.1245
    106  CA         6.1060   22.5120    8.9800 C.3    84  ILE84       0.1561
    107  C          6.7310   23.2590    7.7600 C.2    84  ILE84       0.2260
    108  O          6.5420   22.9600    6.5640 O.2    84  ILE84      -0.2867
    109  CB         6.6920   21.0680    9.1730 C.3    84  ILE84       0.0252
    110  CG1        6.3400   20.4640   10.5160 C.3    84  ILE84       0.0019
    111  CG2        8.1510   20.9070    8.8870 C.3    84  ILE84       0.0019
    112  CD1        6.3500   21.5190   11.6400 C.3    84  ILE84       0.0001
@<TRIPOS>BOND
     1    51    50   ar
     2    52    50   ar
     3    50    49    1
     4    49    46    1
     5    40    39    2
     6    46    47    1
     7    46    45    1
     8    66    64    1
     9    60    61    1
    10    39    45   am
    11    39    38    1
    12    47    48    2
    13    41    38    1
    14    41    42    1
    15    53    54    1
    16    61    64    1
    17    61    62    1
    18    54    55    1
    19    54    57    1
    20    64    65    1
    21    59    57    1
    22    38    37    1
    23    55    56    2
    24    65    67    1
    25    44    42   ar
    26    42    43   ar
    27    57    58    1
    28    62    63    2
    29    62    68   am
    30   108   107    2
    31    37    34   am
    32    68    69    1
    33    35    34    2
    34   107   106    1
    35    34    33    1
    36    90    88    1
    37    69    70    1
    38    84    85    1
    39   111   109    1
    40   105   106    1
    41   106   109    1
    42    33    36    1
    43    33    32    1
    44   109   110    1
    45    71    70    2
    46    88    85    1
    47    88    89    1
    48    70    72   am
    49    85    86    1
    50    23    22    1
    51   101   100    2
    52    32    30   am
    53   110   112    1
    54    87    86    2
    55    31    30    2
    56    72    73    1
    57    86    91   am
    58    15    14    2
    59   100    99    1
    60    30    29    1
    61    22    21    1
    62    20    21    1
    63    12    13    1
    64    24    21    1
    65    24    25    1
    66    14    13    1
    67    73    74    1
    68    91    97    1
    69    91    92    1
    70    28    29    1
    71    27    25   ar
    72    25    26   ar
    73    99    98    1
    74    99   102    1
    75    13    16    1
    76    98    93   am
    77    97    96    1
    78    93    92    1
    79    93    94    2
    80    75    74    2
    81    74    76   am
    82   102   103    1
    83   102   104    1
    84    92    95    1
    85    16    17    1
    86    96    95    1
    87    76    77    1
    88    17    19    1
    89    17    18    1
    90    78    77    1
    91    78    79    2
    92    77    80    1
    93    80    81    1
    94    80    82    1
    95    81    83    1
    96     4     3    2
    97    10     9    1
    98     3     2    1
    99     5     2    1
   100     5     6    1
   101     9     8    2
   102     9    11    1
   103     2     1    1
   104     8     7    1
   105     6     7    1
