@<TRIPOS>MOLECULE
tmp/1uprA00.pdb
 91 85 0 0 0
SMALL
GASTEIGER

@<TRIPOS>ATOM
      1  N         21.2790   34.0390    9.3000 N.3    17  LYS17      -0.1231
      2  CA        20.1030   34.6620    9.8520 C.3    17  LYS17       0.1693
      3  C         20.4800   35.4850   11.0400 C.2    17  LYS17       0.2592
      4  O         21.1450   34.9670   11.9380 O.2    17  LYS17      -0.2718
      5  CB        19.1120   33.5980   10.3170 C.3    17  LYS17       0.0285
      6  CG        17.8720   34.1900   10.8830 C.3    17  LYS17       0.0035
      7  CD        16.7730   33.1330   11.0580 C.3    17  LYS17       0.0206
      8  CE        16.5580   32.7800   12.5110 C.3    17  LYS17       0.1093
      9  NZ        17.5290   31.7790   12.9850 N.3    17  LYS17      -0.1314
     10  N         20.0460   36.7500   11.0790 N.am   18  GLN18      -0.1966
     11  CA        20.3510   37.6050   12.2410 C.3    18  GLN18       0.1733
     12  C         19.3920   37.3770   13.4130 C.2    18  GLN18       0.2616
     13  O         18.1980   37.2320   13.2140 O.2    18  GLN18      -0.2715
     14  CB        20.3680   39.1030   11.8600 C.3    18  GLN18       0.0408
     15  CG        21.2200   39.9480   12.8220 C.3    18  GLN18       0.0908
     16  CD        21.4040   41.4240   12.3940 C.2    18  GLN18       0.2608
     17  OE1       22.4590   42.0250   12.6620 O.2    18  GLN18      -0.2717
     18  NE2       20.3830   42.0030   11.7650 N.am   18  GLN18      -0.0878
     19  N         19.9110   37.3470   14.6360 N.am   19  ASP19      -0.1957
     20  CA        19.0570   37.1540   15.8130 C.3    19  ASP19       0.1840
     21  C         18.0620   38.2920   16.0030 C.2    19  ASP19       0.2622
     22  O         18.3960   39.4710   15.8280 O.2    19  ASP19      -0.2715
     23  CB        19.8980   37.0460   17.0720 C.3    19  ASP19       0.1450
     24  CG        20.9010   35.9540   16.9900 C.2    19  ASP19       0.3671
     25  OD1       20.4930   34.8160   16.6570 O.co2  19  ASP19      -0.2456
     26  OD2       22.1130   36.1420   17.2300 O.co2  19  ASP19      -0.2456
     27  N         16.8400   37.9360   16.3810 N.am   20  SER20      -0.1950
     28  CA        15.7890   38.9390   16.5400 C.3    20  SER20       0.1924
     29  C         16.2750   40.1240   17.3350 C.2    20  SER20       0.2314
     30  O         16.0760   41.2690   16.9280 O.2    20  SER20      -0.2863
     31  CB        14.5460   38.3400   17.2010 C.3    20  SER20       0.2116
     32  OG        13.6990   37.7640   16.2150 O.3    20  SER20      -0.2180
     33  N         23.6490   38.6340   16.3890 N.3    25  LEU25      -0.1245
     34  CA        24.6560   37.8890   15.6500 C.3    25  LEU25       0.1561
     35  C         24.0310   37.2090   14.4500 C.2    25  LEU25       0.2260
     36  O         22.8060   37.0860   14.3540 O.2    25  LEU25      -0.2867
     37  CB        25.2880   36.8100   16.5290 C.3    25  LEU25       0.0270
     38  CG        25.5740   37.1050   18.0040 C.3    25  LEU25       0.0019
     39  CD1       26.6020   38.2130   18.1670 C.3    25  LEU25       0.0001
     40  CD2       24.2710   37.4360   18.7300 C.3    25  LEU25       0.0001
     41  N         23.5360   33.7360   12.4910 N.3    27  LYS27      -0.1245
     42  CA        23.6410   32.2930   12.6310 C.3    27  LYS27       0.1561
     43  C         23.4700   31.6400   11.2660 C.2    27  LYS27       0.2260
     44  O         22.5250   31.9280   10.5210 O.2    27  LYS27      -0.2867
     45  CB        22.5960   31.7690   13.6080 C.3    27  LYS27       0.0271
     46  CG        22.7310   32.3480   14.9950 C.3    27  LYS27       0.0035
     47  CD        23.7490   31.5790   15.8000 C.3    27  LYS27       0.0206
     48  CE        24.4470   32.4720   16.8220 C.3    27  LYS27       0.1093
     49  NZ        23.4840   33.2950   17.6040 N.3    27  LYS27      -0.1314
     50  N         22.3040   28.8550    9.0160 N.3    29  ARG29      -0.1245
     51  CA        21.3520   27.7520    9.0600 C.3    29  ARG29       0.1563
     52  C         21.1090   27.2270    7.6470 C.2    29  ARG29       0.2260
     53  O         21.2840   27.9410    6.6790 O.2    29  ARG29      -0.2867
     54  CB        20.0020   28.2020    9.6340 C.3    29  ARG29       0.0307
     55  CG        20.0890   28.8910   10.9850 C.3    29  ARG29       0.0489
     56  CD        20.0740   27.9920   12.2080 C.3    29  ARG29       0.2205
     57  NE        21.3020   28.2170   12.9230 N.pl3  29  ARG29      -0.0865
     58  CZ        21.4190   28.3380   14.2340 C.cat  29  ARG29       0.5346
     59  NH1       20.3630   28.2620   15.0290 N.pl3  29  ARG29       0.1354
     60  NH2       22.6200   28.5330   14.7480 N.pl3  29  ARG29       0.1354
     61  N         13.9060   25.8570    7.7610 N.3    40  TYR40      -0.1241
     62  CA        15.3350   25.8900    8.0250 C.3    40  TYR40       0.1605
     63  C         15.7240   24.8670    9.0870 C.2    40  TYR40       0.2264
     64  O         14.8920   24.4650    9.9120 O.2    40  TYR40      -0.2867
     65  CB        15.8650   27.3110    8.3150 C.3    40  TYR40       0.0534
     66  CG        15.3660   28.0110    9.5690 C.ar   40  TYR40      -0.0201
     67  CD1       16.0350   27.8820   10.7580 C.ar   40  TYR40      -0.0009
     68  CD2       14.2520   28.8490    9.5340 C.ar   40  TYR40      -0.0009
     69  CE1       15.6030   28.5230   11.9020 C.ar   40  TYR40       0.0417
     70  CE2       13.8190   29.5180   10.6700 C.ar   40  TYR40       0.0417
     71  CZ        14.4950   29.3400   11.8480 C.ar   40  TYR40       0.1957
     72  OH        14.1070   29.9900   12.9940 O.3    40  TYR40      -0.2866
     73  N         13.9220   23.6980   12.5360 N.3    50  LEU50      -0.1245
     74  CA        14.1110   24.6510   13.6150 C.3    50  LEU50       0.1561
     75  C         13.0460   25.7400   13.4930 C.2    50  LEU50       0.2260
     76  O         12.6010   26.3190   14.4970 O.2    50  LEU50      -0.2867
     77  CB        15.5120   25.2660   13.5960 C.3    50  LEU50       0.0270
     78  CG        16.7050   24.2940   13.6530 C.3    50  LEU50       0.0019
     79  CD1       18.0450   25.0310   13.5510 C.3    50  LEU50       0.0001
     80  CD2       16.6600   23.4320   14.9110 C.3    50  LEU50       0.0001
     81  N          6.6670   37.9800   12.4130 N.3    83  ARG83      -0.1245
     82  CA         8.1150   38.0300   12.6120 C.3    83  ARG83       0.1563
     83  C          8.9130   38.4200   11.3440 C.2    83  ARG83       0.2260
     84  O          8.6700   37.8910   10.2510 O.2    83  ARG83      -0.2867
     85  CB         8.6080   36.6750   13.0980 C.3    83  ARG83       0.0307
     86  CG        10.1070   36.6190   13.1920 C.3    83  ARG83       0.0489
     87  CD        10.6420   35.2530   13.5130 C.3    83  ARG83       0.2205
     88  NE        12.0930   35.2780   13.6330 N.pl3  83  ARG83      -0.0865
     89  CZ        12.8030   34.2610   14.0970 C.cat  83  ARG83       0.5346
     90  NH1       12.1900   33.1530   14.4760 N.pl3  83  ARG83       0.1354
     91  NH2       14.1240   34.3480   14.1600 N.pl3  83  ARG83       0.1354
@<TRIPOS>BOND
     1    53    52    2
     2    52    51    1
     3    61    62    1
     4    62    65    1
     5    62    63    1
     6    65    66    1
     7    50    51    1
     8    51    54    1
     9    63    64    2
    10     1     2    1
    11    68    66   ar
    12    68    70   ar
    13    66    67   ar
    14    54    55    1
    15     2     5    1
    16     2     3    1
    17    84    83    2
    18     5     6    1
    19    44    43    2
    20    70    71   ar
    21    67    69   ar
    22     6     7    1
    23    55    56    1
    24     3    10   am
    25     3     4    2
    26     7     8    1
    27    10    11    1
    28    43    42    1
    29    83    82    1
    30    18    16   am
    31    71    69   ar
    32    71    72    1
    33    14    11    1
    34    14    15    1
    35    56    57    1
    36    11    12    1
    37    16    17    2
    38    16    15    1
    39    81    82    1
    40    41    42    1
    41     8     9    1
    42    73    74    1
    43    82    85    1
    44    42    45    1
    45    57    58    2
    46    85    86    1
    47    86    87    1
    48    13    12    2
    49    12    19   am
    50    75    74    1
    51    75    76    2
    52    87    88    1
    53    79    78    1
    54    77    74    1
    55    77    78    1
    56    45    46    1
    57    88    89    2
    58    78    80    1
    59    89    91    1
    60    89    90    1
    61    58    60    1
    62    58    59    1
    63    36    35    2
    64    35    34    1
    65    19    20    1
    66    46    47    1
    67    34    33    1
    68    34    37    1
    69    47    48    1
    70    20    21    1
    71    20    23    1
    72    22    21    2
    73    21    27   am
    74    32    31    1
    75    27    28    1
    76    37    38    1
    77    28    31    1
    78    28    29    1
    79    25    24   ar
    80    48    49    1
    81    30    29    2
    82    24    23    1
    83    24    26   ar
    84    38    39    1
    85    38    40    1
