@<TRIPOS>MOLECULE
tmp/1upuD00.pdb
 147 143 0 0 0
SMALL
GASTEIGER

@<TRIPOS>ATOM
      1  N         -2.0110   88.7580   48.0490 N.3    90  ILE90      -0.1245
      2  CA        -1.3610   88.7890   46.7630 C.3    90  ILE90       0.1561
      3  C         -0.2030   87.8200   46.9110 C.2    90  ILE90       0.2260
      4  O          0.7460   88.0620   47.6790 O.2    90  ILE90      -0.2867
      5  CB        -0.8380   90.1910   46.3860 C.3    90  ILE90       0.0252
      6  CG1       -1.9910   91.2320   46.3510 C.3    90  ILE90       0.0019
      7  CG2       -0.0880   90.1220   45.0540 C.3    90  ILE90       0.0019
      8  CD1       -3.0780   90.9280   45.3450 C.3    90  ILE90       0.0001
      9  N          4.0870   87.1150   48.7390 N.3    93  ALA93      -0.1245
     10  CA         4.2400   88.0950   49.8070 C.3    93  ALA93       0.1562
     11  C          2.9990   88.4110   50.6250 C.2    93  ALA93       0.2260
     12  O          3.0510   88.5150   51.8400 O.2    93  ALA93      -0.2867
     13  CB         4.8470   89.3690   49.2610 C.3    93  ALA93       0.0290
     14  N          4.4030   89.7500   36.4710 N.3   117  ARG117     -0.1245
     15  CA         4.8130   90.6000   35.3550 C.3   117  ARG117      0.1563
     16  C          5.4470   89.7980   34.2350 C.2   117  ARG117      0.2260
     17  O          6.3950   89.0490   34.4770 O.2   117  ARG117     -0.2867
     18  CB         5.8190   91.6370   35.8120 C.3   117  ARG117      0.0307
     19  CG         5.1770   92.8830   36.2510 C.3   117  ARG117      0.0489
     20  CD         6.2300   93.8650   36.6780 C.3   117  ARG117      0.2205
     21  NE         5.7150   94.7810   37.6940 N.pl3 117  ARG117     -0.0865
     22  CZ         4.9570   95.8460   37.4430 C.cat 117  ARG117      0.5346
     23  NH1        4.6160   96.1530   36.1960 N.pl3 117  ARG117      0.1354
     24  NH2        4.5460   96.6100   38.4460 N.pl3 117  ARG117      0.1354
     25  N         -0.6570   92.9290   51.0150 N.3   144  ASP144     -0.1239
     26  CA         0.5740   92.9530   50.2650 C.3   144  ASP144      0.1674
     27  C          1.5490   93.8710   51.0490 C.2   144  ASP144      0.2266
     28  O          1.3490   95.0810   51.1380 O.2   144  ASP144     -0.2867
     29  CB         0.3080   93.4370   48.8030 C.3   144  ASP144      0.1410
     30  CG         1.4510   93.1040   47.8620 C.2   144  ASP144      0.3668
     31  OD1        2.3170   92.3180   48.2740 O.co2 144  ASP144     -0.2456
     32  OD2        1.5450   93.7090   46.7710 O.co2 144  ASP144     -0.2456
     33  N          4.4850   95.1160   50.5090 N.3   146  MET146     -0.1230
     34  CA         5.1550   96.1840   49.8550 C.3   146  MET146      0.1702
     35  C          4.4090   96.8120   48.7430 C.2   146  MET146      0.2592
     36  O          3.6380   96.1610   48.0600 O.2   146  MET146     -0.2718
     37  CB         6.5540   95.7440   49.4690 C.3   146  MET146      0.0401
     38  CG         7.2790   95.2380   50.7100 C.3   146  MET146      0.0596
     39  SD         9.0890   95.2170   50.6550 S.3   146  MET146     -0.1393
     40  CE         9.5570   96.6140   51.6750 C.3   146  MET146      0.0692
     41  N          4.6320   98.1100   48.6010 N.am  147  CYS147     -0.1956
     42  CA         4.0140   98.8770   47.5850 C.3   147  CYS147      0.1843
     43  C          5.0330   99.8230   46.9460 C.2   147  CYS147      0.2625
     44  O          5.2890  100.8990   47.4600 O.2   147  CYS147     -0.2714
     45  CB         2.8880   99.6430   48.1710 C.3   147  CYS147      0.0997
     46  SG         1.9570  100.4150   46.8410 S.3   147  CYS147     -0.0797
     47  N          5.6320   99.3930   45.8320 N.am  148  ALA148     -0.1963
     48  CA         6.6470  100.1820   45.1240 C.3   148  ALA148      0.1728
     49  C          6.0350  101.0290   43.9830 C.2   148  ALA148      0.2617
     50  O          5.7340  102.2100   44.1570 O.2   148  ALA148     -0.2715
     51  CB         7.7370   99.2590   44.5820 C.3   148  ALA148      0.0334
     52  N          5.8430  100.4160   42.8190 N.am  149  THR149     -0.1937
     53  CA         5.2540  101.1410   41.7020 C.3   149  THR149      0.2028
     54  C          3.7440  101.0430   41.7470 C.2   149  THR149      0.2642
     55  O          3.0520  101.8120   41.0800 O.2   149  THR149     -0.2714
     56  CB         5.6850  100.5780   40.3670 C.3   149  THR149      0.1808
     57  OG1        5.1720   99.2420   40.2430 O.3   149  THR149     -0.2208
     58  CG2        7.2000  100.6120   40.2530 C.3   149  THR149      0.0379
     59  N          3.2370  100.0840   42.5200 N.am  150  ALA150     -0.1963
     60  CA         1.7860   99.8760   42.6690 C.3   150  ALA150      0.1728
     61  C          1.2150   99.1410   41.4990 C.2   150  ALA150      0.2617
     62  O         -0.0150   99.0730   41.3180 O.2   150  ALA150     -0.2715
     63  CB         1.0370  101.1940   42.8990 C.3   150  ALA150      0.0334
     64  N          2.0970   98.5740   40.6920 N.am  151  GLY151     -0.1940
     65  CA         1.6460   97.8300   39.5230 C.3   151  GLY151      0.2014
     66  C          0.7620   96.6400   39.9350 C.2   151  GLY151      0.2640
     67  O         -0.3990   96.4990   39.5050 O.2   151  GLY151     -0.2714
     68  N          1.3210   95.7840   40.7740 N.am  152  SER152     -0.1935
     69  CA         0.6070   94.5990   41.2190 C.3   152  SER152      0.2055
     70  C         -0.6490   94.9240   41.9660 C.2   152  SER152      0.2642
     71  O         -1.7230   94.4150   41.6330 O.2   152  SER152     -0.2714
     72  CB         1.4970   93.6380   42.0160 C.3   152  SER152      0.2130
     73  OG         2.6520   94.2870   42.4790 O.3   152  SER152     -0.2179
     74  N         -0.5590   95.7810   42.9610 N.am  153  VAL153     -0.1977
     75  CA        -1.7870   96.0990   43.6760 C.3   153  VAL153      0.1596
     76  C         -2.8660   96.6870   42.7490 C.2   153  VAL153      0.2287
     77  O         -4.0560   96.3560   42.8490 O.2   153  VAL153     -0.2864
     78  CB        -1.5860   96.9320   44.9970 C.3   153  VAL153      0.0276
     79  CG1       -1.1180   98.3560   44.7150 C.3   153  VAL153      0.0022
     80  CG2       -2.8840   96.9530   45.7790 C.3   153  VAL153      0.0022
     81  N         13.7860   99.6900   40.7880 N.3   207  TYR207     -0.1227
     82  CA        12.4440   99.8000   41.3530 C.3   207  TYR207      0.1736
     83  C         12.3440   99.1530   42.6940 C.2   207  TYR207      0.2595
     84  O         11.3400   98.5420   43.0400 O.2   207  TYR207     -0.2718
     85  CB        11.3620   99.2510   40.4480 C.3   207  TYR207      0.0548
     86  CG        11.5320   99.6130   38.9990 C.ar  207  TYR207     -0.0200
     87  CD1       12.3410   98.8440   38.1740 C.ar  207  TYR207     -0.0009
     88  CD2       10.8830  100.7120   38.4460 C.ar  207  TYR207     -0.0009
     89  CE1       12.5090   99.1470   36.8420 C.ar  207  TYR207      0.0417
     90  CE2       11.0460  101.0350   37.1090 C.ar  207  TYR207      0.0417
     91  CZ        11.8640  100.2420   36.3000 C.ar  207  TYR207      0.1957
     92  OH        12.0370  100.5400   34.9500 O.3   207  TYR207     -0.2866
     93  N         13.3860   99.3070   43.4710 N.am  208  TYR208     -0.1962
     94  CA        13.3520   98.7770   44.7890 C.3   208  TYR208      0.1771
     95  C         13.0910   99.9530   45.7090 C.2   208  TYR208      0.2619
     96  O         13.5360  101.0870   45.4450 O.2   208  TYR208     -0.2715
     97  CB        14.6590   98.0810   45.1010 C.3   208  TYR208      0.0574
     98  CG        14.6060   96.6520   44.6870 C.ar  208  TYR208     -0.0198
     99  CD1       13.7110   95.7930   45.2770 C.ar  208  TYR208     -0.0009
    100  CD2       15.4160   96.1630   43.6680 C.ar  208  TYR208     -0.0009
    101  CE1       13.6210   94.4720   44.8940 C.ar  208  TYR208      0.0417
    102  CE2       15.3380   94.8320   43.2730 C.ar  208  TYR208      0.0417
    103  CZ        14.4390   93.9970   43.8940 C.ar  208  TYR208      0.1957
    104  OH        14.3560   92.6710   43.5390 O.3   208  TYR208     -0.2866
    105  N         12.3380   99.7010   46.7630 N.am  209  ILE209     -0.1977
    106  CA        12.0560  100.7560   47.7000 C.3   209  ILE209      0.1596
    107  C         13.3200  101.0030   48.5160 C.2   209  ILE209      0.2287
    108  O         13.9800  100.0440   48.9380 O.2   209  ILE209     -0.2864
    109  CB        10.9570  100.3650   48.6420 C.3   209  ILE209      0.0276
    110  CG1        9.7190   99.9640   47.8560 C.3   209  ILE209      0.0022
    111  CG2       10.6730  101.5010   49.6170 C.3   209  ILE209      0.0022
    112  CD1        8.4360  100.5230   48.4260 C.3   209  ILE209      0.0001
    113  N         13.5360   97.2830   52.3380 N.3   213  ILE213     -0.1231
    114  CA        13.6210   96.0610   53.1240 C.3   213  ILE213      0.1692
    115  C         14.1990   94.8920   52.3570 C.2   213  ILE213      0.2593
    116  O         14.4440   93.8290   52.9250 O.2   213  ILE213     -0.2718
    117  CB        12.2110   95.6420   53.5090 C.3   213  ILE213      0.0266
    118  CG1       12.1220   95.2770   54.9680 C.3   213  ILE213      0.0019
    119  CG2       11.7380   94.4740   52.6690 C.3   213  ILE213      0.0020
    120  CD1       10.7820   95.6770   55.5570 C.3   213  ILE213      0.0001
    121  N         14.3990   95.0740   51.0570 N.am  214  GLY214     -0.1942
    122  CA        14.9220   93.9910   50.2270 C.3   214  GLY214      0.2014
    123  C         13.6920   93.3500   49.6250 C.2   214  GLY214      0.2639
    124  O         12.6850   94.0260   49.4380 O.2   214  GLY214     -0.2714
    125  N         13.7450   92.0570   49.3170 N.am  215  ASP215     -0.1957
    126  CA        12.5730   91.3700   48.7470 C.3   215  ASP215      0.1840
    127  C         11.8320   90.6620   49.8850 C.2   215  ASP215      0.2622
    128  O         12.2520   89.5830   50.3410 O.2   215  ASP215     -0.2715
    129  CB        13.0100   90.3360   47.7020 C.3   215  ASP215      0.1450
    130  CG        11.8310   89.7220   46.9550 C.2   215  ASP215      0.3671
    131  OD1       11.1810   88.7930   47.4900 O.co2 215  ASP215     -0.2456
    132  OD2       11.5590   90.1850   45.8240 O.co2 215  ASP215     -0.2456
    133  N         10.7490   91.2790   50.3500 N.am  216  PHE216     -0.1960
    134  CA         9.9890   90.7500   51.4700 C.3   216  PHE216      0.1771
    135  C          9.6890   89.2450   51.3760 C.2   216  PHE216      0.2620
    136  O          9.9900   88.4630   52.2830 O.2   216  PHE216     -0.2715
    137  CB         8.7260   91.5980   51.7410 C.3   216  PHE216      0.0574
    138  CG         8.1420   91.4060   53.1360 C.ar  216  PHE216     -0.0200
    139  CD1        7.3660   90.2720   53.4240 C.ar  216  PHE216     -0.0042
    140  CD2        8.3910   92.3260   54.1610 C.ar  216  PHE216     -0.0042
    141  CE1        6.8320   90.0770   54.6790 C.ar  216  PHE216     -0.0003
    142  CE2        7.8520   92.1270   55.4230 C.ar  216  PHE216     -0.0003
    143  CZ         7.0710   90.9990   55.6830 C.ar  216  PHE216     -0.0000
    144  N          9.1170   88.8640   50.2520 N.am  217  GLY217     -0.1954
    145  CA         8.7340   87.4740   49.9700 C.3   217  GLY217      0.1869
    146  C          9.8890   86.4940   50.1000 C.2   217  GLY217      0.2309
    147  O          9.7230   85.3860   50.6010 O.2   217  GLY217     -0.2863
@<TRIPOS>BOND
     1    16    17    2
     2    16    15    1
     3    92    91    1
     4    15    18    1
     5    15    14    1
     6    18    19    1
     7    23    22    1
     8    19    20    1
     9    91    89   ar
    10    91    90   ar
    11    20    21    1
    12    89    87   ar
    13    90    88   ar
    14    22    21    2
    15    22    24    1
    16    87    86   ar
    17    88    86   ar
    18    86    85    1
    19    67    66    2
    20    65    66    1
    21    65    64    1
    22    66    68   am
    23    57    56    1
    24    58    56    1
    25    56    53    1
    26    85    82    1
    27    64    61   am
    28    68    69    1
    29    81    82    1
    30    55    54    2
    31    69    70    1
    32    69    72    1
    33    62    61    2
    34    82    83    1
    35    61    60    1
    36    71    70    2
    37    53    54    1
    38    53    52    1
    39    54    59   am
    40    70    74   am
    41    72    73    1
    42    59    60    1
    43    60    63    1
    44    83    84    2
    45    83    93   am
    46    76    77    2
    47    76    75    1
    48    52    49   am
    49    74    75    1
    50   102   100   ar
    51   102   103   ar
    52    93    94    1
    53   104   103    1
    54   100    98   ar
    55    75    78    1
    56   103   101   ar
    57    49    50    2
    58    49    48    1
    59    51    48    1
    60    98    97    1
    61    98    99   ar
    62    79    78    1
    63    94    97    1
    64    94    95    1
    65   101    99   ar
    66    78    80    1
    67     7     5    1
    68    48    47    1
    69     8     6    1
    70    96    95    2
    71    95   105   am
    72   132   130   ar
    73    47    43   am
    74     6     5    1
    75     5     2    1
    76     2     3    1
    77     2     1    1
    78   105   106    1
    79    32    30   ar
    80    46    45    1
    81     3     4    2
    82    43    44    2
    83    43    42    1
    84   130   131   ar
    85   130   129    1
    86    42    45    1
    87    42    41    1
    88   106   107    1
    89   106   109    1
    90   129   126    1
    91   110   112    1
    92   110   109    1
    93    30    31   ar
    94    30    29    1
    95    36    35    2
    96   107   108    2
    97    41    35   am
    98   109   111    1
    99     9    10    1
   100    35    34    1
   101   126   125    1
   102   126   127    1
   103    29    26    1
   104    13    10    1
   105   125   123   am
   106   124   123    2
   107    37    34    1
   108    37    38    1
   109   123   122    1
   110    10    11    1
   111    34    33    1
   112   127   128    2
   113   127   133   am
   114   145   146    1
   115   145   144    1
   116   146   147    2
   117   122   121    1
   118   144   135   am
   119    26    25    1
   120    26    27    1
   121   133   134    1
   122    11    12    2
   123    39    38    1
   124    39    40    1
   125    27    28    2
   126   121   115   am
   127   135   134    1
   128   135   136    2
   129   134   137    1
   130   137   138    1
   131   113   114    1
   132   115   116    2
   133   115   114    1
   134   119   117    1
   135   114   117    1
   136   138   139   ar
   137   138   140   ar
   138   139   141   ar
   139   117   118    1
   140   140   142   ar
   141   141   143   ar
   142   118   120    1
   143   142   143   ar
