@<TRIPOS>MOLECULE
tmp/1uqxA00.pdb
 85 80 0 0 0
SMALL
GASTEIGER

@<TRIPOS>ATOM
      1  N         -7.1930   17.4410   10.2430 N.3    21  ASN21      -0.1225
      2  CA        -8.6540   17.1830   10.2080 C.3    21  ASN21       0.1785
      3  C         -9.0770   17.0400   11.6800 C.2    21  ASN21       0.2597
      4  O         -9.3450   15.9440   12.1990 O.2    21  ASN21      -0.2718
      5  CB        -9.0230   15.9410    9.4300 C.3    21  ASN21       0.1169
      6  CG        -8.7150   16.0750    7.9640 C.2    21  ASN21       0.2627
      7  OD1       -9.5020   16.6210    7.2130 O.2    21  ASN21      -0.2716
      8  ND2       -7.5550   15.5630    7.5500 N.am   21  ASN21      -0.0877
      9  N         -9.0660   18.1640   12.3610 N.am   22  ALA22      -0.1966
     10  CA        -9.1620   18.1760   13.8330 C.3    22  ALA22       0.1728
     11  C         -9.6080   19.5020   14.3820 C.2    22  ALA22       0.2616
     12  O         -9.2210   20.5500   13.8660 O.2    22  ALA22      -0.2715
     13  CB        -7.7820   17.8340   14.4600 C.3    22  ALA22       0.0334
     14  N        -10.3670   19.4780   15.4850 N.am   23  ALA23      -0.1963
     15  CA       -10.6360   20.7090   16.2150 C.3    23  ALA23       0.1728
     16  C         -9.4400   21.1860   17.0180 C.2    23  ALA23       0.2616
     17  O         -9.2730   22.3920   17.2240 O.2    23  ALA23      -0.2715
     18  CB       -11.8520   20.5550   17.1500 C.3    23  ALA23       0.0334
     19  N         -8.6270   20.2680   17.5050 N.am   24  ASN24      -0.1972
     20  CA        -7.4370   20.5920   18.2810 C.3    24  ASN24       0.1688
     21  C         -6.2070   20.8870   17.4260 C.2    24  ASN24       0.2292
     22  O         -6.0580   20.3540   16.3140 O.2    24  ASN24      -0.2864
     23  CB        -7.1300   19.4920   19.2900 C.3    24  ASN24       0.1181
     24  CG        -8.1780   19.4010   20.3980 C.2    24  ASN24       0.2629
     25  OD1       -8.8260   20.3930   20.7140 O.2    24  ASN24      -0.2716
     26  ND2       -8.3130   18.2350   20.9870 N.am   24  ASN24      -0.0877
     27  N        -10.9570   21.2070   10.1690 N.3    45  THR45      -0.1218
     28  CA       -11.5590   19.8940    9.9710 C.3    45  THR45       0.1862
     29  C        -11.7760   19.5310    8.5170 C.2    45  THR45       0.2287
     30  O        -12.3220   18.4550    8.2540 O.2    45  THR45      -0.2866
     31  CB       -12.8900   19.7590   10.7450 C.3    45  THR45       0.1770
     32  OG1      -13.7260   20.8980   10.4340 O.3    45  THR45      -0.2211
     33  CG2      -12.6460   19.7980   12.2240 C.3    45  THR45       0.0375
     34  N         -4.4830    9.7480   15.6790 N.3    94  GLU94      -0.1231
     35  CA        -5.7080    9.9310   16.4440 C.3    94  GLU94       0.1699
     36  C         -5.3800   10.6190   17.7750 C.2    94  GLU94       0.2592
     37  O         -4.5780   10.1320   18.5630 O.2    94  GLU94      -0.2718
     38  CB        -6.3550    8.5810   16.7010 C.3    94  GLU94       0.0402
     39  CG        -7.6770    8.6410   17.4770 C.3    94  GLU94       0.1161
     40  CD        -8.6380    9.6430   16.9030 C.2    94  GLU94       0.3649
     41  OE1       -8.9240    9.5530   15.6800 O.co2  94  GLU94      -0.2457
     42  OE2       -9.1120   10.5680   17.6080 O.co2  94  GLU94      -0.2457
     43  N         -5.9970   11.7780   17.9780 N.am   95  ASP95      -0.1960
     44  CA        -5.7780   12.5930   19.1760 C.3    95  ASP95       0.1840
     45  C         -6.8640   12.4260   20.2540 C.2    95  ASP95       0.2623
     46  O         -6.7930   13.0600   21.3200 O.2    95  ASP95      -0.2715
     47  CB        -5.6170   14.0520   18.8090 C.3    95  ASP95       0.1450
     48  CG        -6.8890   14.7250   18.3370 C.2    95  ASP95       0.3671
     49  OD1       -8.0080   14.1330   18.4750 O.co2  95  ASP95      -0.2456
     50  OD2       -6.8390   15.8580   17.7770 O.co2  95  ASP95      -0.2456
     51  N         -7.8370   11.5810   19.9530 N.am   96  GLY96      -0.1940
     52  CA        -9.0840   11.5010   20.7060 C.3    96  GLY96       0.2014
     53  C         -9.6690   10.1150   20.7530 C.2    96  GLY96       0.2640
     54  O         -8.9430    9.0920   20.9190 O.2    96  GLY96      -0.2714
     55  N        -10.9890   10.0630   20.6000 N.am   97  THR97      -0.1936
     56  CA       -11.7290    8.8290   20.7890 C.3    97  THR97       0.2028
     57  C        -12.5430    8.3800   19.5870 C.2    97  THR97       0.2642
     58  O        -13.0590    7.2630   19.6010 O.2    97  THR97      -0.2714
     59  CB       -12.7070    8.9820   21.9870 C.3    97  THR97       0.1808
     60  OG1      -13.5470   10.1230   21.7400 O.3    97  THR97      -0.2208
     61  CG2      -12.0030    9.2020   23.3350 C.3    97  THR97       0.0379
     62  N        -12.7380    9.2110   18.5770 N.am   98  ASP98      -0.1971
     63  CA       -13.5700    8.8290   17.4490 C.3    98  ASP98       0.1709
     64  C        -12.8780    7.8780   16.4450 C.2    98  ASP98       0.2293
     65  O        -13.5500    7.3240   15.5970 O.2    98  ASP98      -0.2864
     66  CB       -14.2120    9.9990   16.7120 C.3    98  ASP98       0.1436
     67  CG       -13.2120   10.8780   15.9860 C.2    98  ASP98       0.3671
     68  OD1      -11.9670   10.7270   16.2300 O.co2  98  ASP98      -0.2456
     69  OD2      -13.6200   11.7950   15.2160 O.co2  98  ASP98      -0.2456
     70  N        -11.0030    8.2450   13.8440 N.3   100  ASP100     -0.1239
     71  CA       -10.8940    8.5520   12.4220 C.3   100  ASP100      0.1674
     72  C         -9.4570    8.5670   11.9040 C.2   100  ASP100      0.2266
     73  O         -9.2310    8.4620   10.6740 O.2   100  ASP100     -0.2867
     74  CB       -11.7140    9.7760   12.0040 C.3   100  ASP100      0.1410
     75  CG       -11.2920   11.0550   12.6600 C.2   100  ASP100      0.3668
     76  OD1      -10.3170   11.0810   13.5050 O.co2 100  ASP100     -0.2456
     77  OD2      -11.8940   12.1060   12.3030 O.co2 100  ASP100     -0.2456
     78  N         -6.4210   13.0570   12.1880 N.3   103  ASP103     -0.1239
     79  CA        -6.3640   14.3330   12.9200 C.3   103  ASP103      0.1674
     80  C         -5.1590   15.1620   12.5060 C.2   103  ASP103      0.2266
     81  O         -5.2630   16.3730   12.2330 O.2   103  ASP103     -0.2867
     82  CB        -6.4210   14.0980   14.4280 C.3   103  ASP103      0.1410
     83  CG        -7.6580   13.3940   14.8620 C.2   103  ASP103      0.3668
     84  OD1       -8.7680   13.7170   14.3320 O.co2 103  ASP103     -0.2456
     85  OD2       -7.6240   12.5100   15.7660 O.co2 103  ASP103     -0.2456
@<TRIPOS>BOND
     1     7     6    2
     2     8     6   am
     3     6     5    1
     4    30    29    2
     5    29    28    1
     6     5     2    1
     7    28    27    1
     8    28    31    1
     9     2     1    1
    10     2     3    1
    11    32    31    1
    12    73    72    2
    13    31    33    1
    14     3     4    2
    15     3     9   am
    16    72    71    1
    17    74    71    1
    18    74    75    1
    19    78    79    1
    20    81    80    2
    21    77    75   ar
    22     9    10    1
    23    71    70    1
    24    80    79    1
    25    75    76   ar
    26    79    82    1
    27    10    11    1
    28    10    13    1
    29    12    11    2
    30    84    83   ar
    31    11    14   am
    32    82    83    1
    33    83    85   ar
    34    69    67   ar
    35    14    15    1
    36    65    64    2
    37    34    35    1
    38    41    40   ar
    39    67    68   ar
    40    67    66    1
    41    15    16    1
    42    15    18    1
    43    22    21    2
    44    35    38    1
    45    35    36    1
    46    64    63    1
    47    38    39    1
    48    66    63    1
    49    40    39    1
    50    40    42   ar
    51    16    17    2
    52    16    19   am
    53    21    20    1
    54    63    62    1
    55    19    20    1
    56    36    43   am
    57    36    37    2
    58    50    48   ar
    59    43    44    1
    60    20    23    1
    61    48    49   ar
    62    48    47    1
    63    62    57   am
    64    47    44    1
    65    44    45    1
    66    23    24    1
    67    57    58    2
    68    57    56    1
    69    51    45   am
    70    51    52    1
    71    45    46    2
    72    24    25    2
    73    24    26   am
    74    55    53   am
    75    55    56    1
    76    52    53    1
    77    53    54    2
    78    56    59    1
    79    60    59    1
    80    59    61    1
