@<TRIPOS>MOLECULE
tmp/1uqyA00.pdb
 144 139 0 0 0
SMALL
GASTEIGER

@<TRIPOS>ATOM
      1  N          8.9820   40.7530   14.4920 N.3    42  GLU42      -0.1231
      2  CA         7.8710   40.3130   15.3440 C.3    42  GLU42       0.1699
      3  C          6.5190   40.8220   14.8600 C.2    42  GLU42       0.2592
      4  O          5.4970   40.1290   14.9690 O.2    42  GLU42      -0.2718
      5  CB         8.0990   40.7440   16.8060 C.3    42  GLU42       0.0402
      6  CG         7.1350   40.0750   17.7490 C.3    42  GLU42       0.1161
      7  CD         7.4370   40.3270   19.2060 C.2    42  GLU42       0.3649
      8  OE1        8.4880   40.9590   19.5060 O.co2  42  GLU42      -0.2457
      9  OE2        6.6450   39.8410   20.0350 O.co2  42  GLU42      -0.2457
     10  N          6.4970   42.0600   14.3570 N.am   43  ASN43      -0.1974
     11  CA         5.2440   42.6950   13.9290 C.3    43  ASN43       0.1688
     12  C          5.3330   43.5760   12.6960 C.2    43  ASN43       0.2292
     13  O          4.3200   43.7410   11.9960 O.2    43  ASN43      -0.2864
     14  CB         4.6430   43.5740   15.0410 C.3    43  ASN43       0.1181
     15  CG         4.0790   42.7560   16.1820 C.2    43  ASN43       0.2629
     16  OD1        3.1090   42.0360   16.0070 O.2    43  ASN43      -0.2716
     17  ND2        4.6590   42.8980   17.3530 N.am   43  ASN43      -0.0877
     18  N          3.7060   42.7830    9.1760 N.3    46  LYS46      -0.1245
     19  CA         2.3160   42.3550    9.0880 C.3    46  LYS46       0.1561
     20  C          1.4970   43.4260    8.3850 C.2    46  LYS46       0.2260
     21  O          1.7440   44.6280    8.5840 O.2    46  LYS46      -0.2867
     22  CB         1.7650   42.1090   10.4860 C.3    46  LYS46       0.0271
     23  CG         2.4820   40.9240   11.2060 C.3    46  LYS46       0.0035
     24  CD         2.1700   40.8270   12.6780 C.3    46  LYS46       0.0206
     25  CE         2.9010   39.6420   13.2800 C.3    46  LYS46       0.1093
     26  NZ         2.6050   39.4980   14.8010 N.3    46  LYS46      -0.1314
     27  N          0.1060   46.4520   10.2390 N.3    49  VAL49      -0.1245
     28  CA         1.0980   47.1980   10.9800 C.3    49  VAL49       0.1561
     29  C          1.9010   48.0540    9.9870 C.2    49  VAL49       0.2260
     30  O          2.1820   49.2430   10.2230 O.2    49  VAL49      -0.2867
     31  CB         2.0410   46.2470   11.7750 C.3    49  VAL49       0.0252
     32  CG1        3.0950   47.0580   12.5160 C.3    49  VAL49       0.0019
     33  CG2        1.2290   45.3890   12.7620 C.3    49  VAL49       0.0019
     34  N          7.8120   37.9260    7.7160 N.3    79  HIS79      -0.1241
     35  CA         6.6470   37.4410    8.4610 C.3    79  HIS79       0.1621
     36  C          5.6120   38.5790    8.4530 C.2    79  HIS79       0.2264
     37  O          5.8840   39.6390    8.9820 O.2    79  HIS79      -0.2867
     38  CB         7.0990   37.0990    9.8830 C.3    79  HIS79       0.0745
     39  CG         5.9880   36.6740   10.7940 C.ar   79  HIS79       0.0817
     40  ND1        5.3710   35.4490   10.6720 N.ar   79  HIS79      -0.2268
     41  CD2        5.3810   37.3060   11.8290 C.ar   79  HIS79       0.1154
     42  CE1        4.4160   35.3560   11.5850 C.ar   79  HIS79       0.1986
     43  NE2        4.3980   36.4680   12.2950 N.ar   79  HIS79      -0.2212
     44  N         -2.2770   36.5010    6.1270 N.3    83  TRP83      -0.1241
     45  CA        -2.7160   36.0540    7.4320 C.3    83  TRP83       0.1605
     46  C         -4.0220   36.7580    7.7810 C.2    83  TRP83       0.2264
     47  O         -4.2760   37.8740    7.3330 O.2    83  TRP83      -0.2867
     48  CB        -1.6240   36.3700    8.4410 C.3    83  TRP83       0.0550
     49  CG        -1.7910   35.8250    9.8010 C.ar   83  TRP83       0.0003
     50  CD1       -2.3860   34.6400   10.1790 C.ar   83  TRP83       0.0946
     51  CD2       -1.2770   36.4140   11.0010 C.ar   83  TRP83       0.0152
     52  NE1       -2.2580   34.4840   11.5380 N.ar   83  TRP83      -0.2442
     53  CE2       -1.6000   35.5600   12.0680 C.ar   83  TRP83       0.0810
     54  CE3       -0.6030   37.6120   11.2770 C.ar   83  TRP83       0.0012
     55  CZ2       -1.2100   35.8260   13.4060 C.ar   83  TRP83       0.0191
     56  CZ3       -0.2500   37.8980   12.6090 C.ar   83  TRP83       0.0001
     57  CH2       -0.5600   37.0080   13.6470 C.ar   83  TRP83       0.0015
     58  N         -4.1210   40.8360   12.5780 N.3    86  GLN86      -0.1245
     59  CA        -3.3740   42.0710   12.3970 C.3    86  GLN86       0.1566
     60  C         -3.4550   42.5360   10.9510 C.2    86  GLN86       0.2260
     61  O         -2.4410   42.8190   10.2980 O.2    86  GLN86      -0.2867
     62  CB        -1.9320   41.9190   12.8880 C.3    86  GLN86       0.0367
     63  CG        -1.9020   41.7590   14.4110 C.3    86  GLN86       0.0905
     64  CD        -0.5070   41.5200   14.9290 C.2    86  GLN86       0.2608
     65  OE1       -0.1200   40.3600   15.0690 O.2    86  GLN86      -0.2717
     66  NE2        0.2700   42.6000   15.1740 N.am   86  GLN86      -0.0878
     67  N          0.0600   32.0690    6.9220 N.3   131  ASN131     -0.1225
     68  CA         0.1110   31.7490    8.4010 C.3   131  ASN131      0.1785
     69  C         -1.3100   31.2780    8.7690 C.2   131  ASN131      0.2597
     70  O         -2.2920   31.9330    8.3970 O.2   131  ASN131     -0.2718
     71  CB         0.4340   33.0240    9.2330 C.3   131  ASN131      0.1169
     72  CG         1.2100   32.7720   10.5370 C.2   131  ASN131      0.2627
     73  OD1        1.9900   31.8260   10.6390 O.2   131  ASN131     -0.2716
     74  ND2        1.0120   33.6450   11.5490 N.am  131  ASN131     -0.0877
     75  N         -1.4130   30.1240    9.4350 N.am  132  GLU132     -0.1979
     76  CA        -2.5920   29.7810   10.2480 C.3   132  GLU132      0.1602
     77  C         -3.8820   29.6090    9.4390 C.2   132  GLU132      0.2287
     78  O         -4.9480   30.1590    9.7800 O.2   132  GLU132     -0.2864
     79  CB        -2.7390   30.8000   11.3670 C.3   132  GLU132      0.0415
     80  CG        -1.5660   30.8390   12.3470 C.3   132  GLU132      0.1163
     81  CD        -1.7000   31.8570   13.4640 C.2   132  GLU132      0.3649
     82  OE1       -2.7690   32.5000   13.5810 O.co2 132  GLU132     -0.2457
     83  OE2       -0.7150   32.0130   14.2240 O.co2 132  GLU132     -0.2457
     84  N          3.1200   28.3300    7.6880 N.3   173  ASN173     -0.1240
     85  CA         3.4670   28.3890    9.1370 C.3   173  ASN173      0.1653
     86  C          2.1810   28.2270    9.9410 C.2   173  ASN173      0.2266
     87  O          1.1550   28.7860    9.5550 O.2   173  ASN173     -0.2867
     88  CB         4.1080   29.7450    9.4310 C.3   173  ASN173      0.1155
     89  CG         4.6760   29.9100   10.8480 C.2   173  ASN173      0.2627
     90  OD1        5.5330   29.1660   11.2830 O.2   173  ASN173     -0.2716
     91  ND2        4.2770   30.9970   11.5180 N.am  173  ASN173     -0.0877
     92  N          5.1850   26.5020   14.6790 N.3   206  GLN206     -0.1245
     93  CA         5.4070   27.6610   15.5480 C.3   206  GLN206      0.1566
     94  C          6.1300   27.2650   16.8240 C.2   206  GLN206      0.2260
     95  O          7.0810   27.9290   17.2090 O.2   206  GLN206     -0.2867
     96  CB         4.1320   28.4520   15.8200 C.3   206  GLN206      0.0367
     97  CG         3.7000   29.2510   14.6130 C.3   206  GLN206      0.0905
     98  CD         2.4670   30.0820   14.8760 C.2   206  GLN206      0.2608
     99  OE1        2.1210   30.3250   16.0310 O.2   206  GLN206     -0.2717
    100  NE2        1.7630   30.4820   13.7980 N.am  206  GLN206     -0.0878
    101  N          4.8280   27.1340   19.9860 N.3   208  HIS208     -0.1241
    102  CA         4.3420   27.8010   21.2060 C.3   208  HIS208      0.1621
    103  C          3.9620   26.6980   22.1750 C.2   208  HIS208      0.2264
    104  O          2.8490   26.1760   22.1120 O.2   208  HIS208     -0.2867
    105  CB         3.1440   28.6850   20.8920 C.3   208  HIS208      0.0745
    106  CG         3.5190   29.9160   20.1400 C.ar  208  HIS208      0.0817
    107  ND1        4.4770   30.7940   20.5930 N.ar  208  HIS208     -0.2268
    108  CD2        3.0830   30.4030   18.9550 C.ar  208  HIS208      0.1154
    109  CE1        4.6140   31.7820   19.7190 C.ar  208  HIS208      0.1986
    110  NE2        3.7820   31.5660   18.7120 N.ar  208  HIS208     -0.2212
    111  N          8.7040   29.9510   16.2340 N.3   237  SER237     -0.1217
    112  CA         8.1590   30.8990   17.2210 C.3   237  SER237      0.1889
    113  C          8.2440   30.2820   18.5890 C.2   237  SER237      0.2288
    114  O          7.3110   30.3650   19.3700 O.2   237  SER237     -0.2866
    115  CB         6.6840   31.2390   16.9070 C.3   237  SER237      0.2089
    116  OG         6.4680   31.3480   15.5030 O.3   237  SER237     -0.2183
    117  N         10.5920   33.0540   19.8190 N.3   303  TRP303     -0.1241
    118  CA         9.7170   34.2130   19.6130 C.3   303  TRP303      0.1605
    119  C         10.0560   35.3260   20.6120 C.2   303  TRP303      0.2264
    120  O          9.2610   35.6820   21.5040 O.2   303  TRP303     -0.2867
    121  CB         8.2360   33.8130   19.6230 C.3   303  TRP303      0.0550
    122  CG         7.4090   34.7820   18.8400 C.ar  303  TRP303      0.0003
    123  CD1        6.4740   35.6390   19.3120 C.ar  303  TRP303      0.0946
    124  CD2        7.5060   35.0390   17.4190 C.ar  303  TRP303      0.0152
    125  NE1        5.9860   36.4300   18.2790 N.ar  303  TRP303     -0.2442
    126  CE2        6.6200   36.0980   17.1190 C.ar  303  TRP303      0.0810
    127  CE3        8.3140   34.5420   16.3930 C.ar  303  TRP303      0.0012
    128  CZ2        6.4800   36.6000   15.8170 C.ar  303  TRP303      0.0191
    129  CZ3        8.1590   35.0310   15.1220 C.ar  303  TRP303      0.0001
    130  CH2        7.2630   36.0500   14.8540 C.ar  303  TRP303      0.0015
    131  N          5.6310   38.0800   24.1080 N.3   311  TRP311     -0.1241
    132  CA         4.1950   38.3150   23.9390 C.3   311  TRP311      0.1605
    133  C          3.3450   37.5530   24.9700 C.2   311  TRP311      0.2264
    134  O          2.1990   37.8750   25.1620 O.2   311  TRP311     -0.2867
    135  CB         3.7600   37.9300   22.5200 C.3   311  TRP311      0.0550
    136  CG         3.6820   36.4290   22.2500 C.ar  311  TRP311      0.0003
    137  CD1        4.6860   35.4930   22.4190 C.ar  311  TRP311      0.0946
    138  CD2        2.5590   35.7190   21.7720 C.ar  311  TRP311      0.0152
    139  NE1        4.2190   34.2480   22.1100 N.ar  311  TRP311     -0.2442
    140  CE2        2.9230   34.3580   21.6770 C.ar  311  TRP311      0.0810
    141  CE3        1.2490   36.0810   21.4150 C.ar  311  TRP311      0.0012
    142  CZ2        2.0420   33.3690   21.2480 C.ar  311  TRP311      0.0191
    143  CZ3        0.3780   35.0810   20.9620 C.ar  311  TRP311      0.0001
    144  CH2        0.7800   33.7460   20.8880 C.ar  311  TRP311      0.0015
@<TRIPOS>BOND
     1    44    45    1
     2    67    68    1
     3    47    46    2
     4    45    46    1
     5    45    48    1
     6    84    85    1
     7    34    35    1
     8    20    21    2
     9    20    19    1
    10    70    69    2
    11    68    69    1
    12    68    71    1
    13    48    49    1
    14    36    35    1
    15    36    37    2
    16    35    38    1
    17    69    75   am
    18    19    18    1
    19    19    22    1
    20    85    88    1
    21    85    86    1
    22    71    72    1
    23    88    89    1
    24    75    76    1
    25    77    78    2
    26    77    76    1
    27    87    86    2
    28    49    50   ar
    29    49    51   ar
    30    38    39    1
    31    29    30    2
    32    29    28    1
    33    50    52   ar
    34    27    28    1
    35    76    79    1
    36    61    60    2
    37    22    23    1
    38    72    73    2
    39    72    74   am
    40    40    39   ar
    41    40    42   ar
    42    39    41   ar
    43    89    90    2
    44    89    91   am
    45    60    59    1
    46    28    31    1
    47    51    54   ar
    48    51    53   ar
    49    23    24    1
    50    54    56   ar
    51    79    80    1
    52    52    53   ar
    53    42    43   ar
    54    31    32    1
    55    31    33    1
    56    41    43   ar
    57    13    12    2
    58    53    55   ar
    59    80    81    1
    60    59    58    1
    61    59    62    1
    62    56    57   ar
    63    24    25    1
    64    12    11    1
    65    62    63    1
    66    25    26    1
    67    55    57   ar
    68    81    82   ar
    69    81    83   ar
    70   100    98   am
    71    11    10    1
    72    11    14    1
    73    10     3   am
    74    63    64    1
    75     1     2    1
    76    97    98    1
    77    97    96    1
    78    92    93    1
    79   130   129   ar
    80   130   128   ar
    81     3     4    2
    82     3     2    1
    83    98    99    2
    84    64    65    2
    85    64    66   am
    86    14    15    1
    87   129   127   ar
    88     2     5    1
    89   116   115    1
    90    93    96    1
    91    93    94    1
    92   128   126   ar
    93    16    15    2
    94    15    17   am
    95   111   112    1
    96   127   124   ar
    97     5     6    1
    98    94    95    2
    99   115   112    1
   100   126   124   ar
   101   126   125   ar
   102   112   113    1
   103   124   122   ar
   104     6     7    1
   105   125   123   ar
   106   113   114    2
   107   110   108   ar
   108   110   109   ar
   109   122   123   ar
   110   122   121    1
   111   108   106   ar
   112     7     8   ar
   113     7     9   ar
   114   118   121    1
   115   118   117    1
   116   118   119    1
   117   109   107   ar
   118   101   102    1
   119   106   107   ar
   120   106   105    1
   121   119   120    2
   122   144   143   ar
   123   144   142   ar
   124   105   102    1
   125   143   141   ar
   126   102   103    1
   127   142   140   ar
   128   141   138   ar
   129   140   138   ar
   130   140   139   ar
   131   138   136   ar
   132   139   137   ar
   133   104   103    2
   134   136   137   ar
   135   136   135    1
   136   135   132    1
   137   132   131    1
   138   132   133    1
   139   133   134    2
