@<TRIPOS>MOLECULE
tmp/1uqyA01.pdb
 190 188 0 0 0
SMALL
GASTEIGER

@<TRIPOS>ATOM
      1  N         -2.2770   36.5010    6.1270 N.3    83  TRP83      -0.1227
      2  CA        -2.7160   36.0540    7.4320 C.3    83  TRP83       0.1737
      3  C         -4.0220   36.7580    7.7810 C.2    83  TRP83       0.2595
      4  O         -4.2760   37.8740    7.3330 O.2    83  TRP83      -0.2718
      5  CB        -1.6240   36.3700    8.4410 C.3    83  TRP83       0.0564
      6  CG        -1.7910   35.8250    9.8010 C.ar   83  TRP83       0.0003
      7  CD1       -2.3860   34.6400   10.1790 C.ar   83  TRP83       0.0946
      8  CD2       -1.2770   36.4140   11.0010 C.ar   83  TRP83       0.0152
      9  NE1       -2.2580   34.4840   11.5380 N.ar   83  TRP83      -0.2442
     10  CE2       -1.6000   35.5600   12.0680 C.ar   83  TRP83       0.0810
     11  CE3       -0.6030   37.6120   11.2770 C.ar   83  TRP83       0.0012
     12  CZ2       -1.2100   35.8260   13.4060 C.ar   83  TRP83       0.0191
     13  CZ3       -0.2500   37.8980   12.6090 C.ar   83  TRP83       0.0001
     14  CH2       -0.5600   37.0080   13.6470 C.ar   83  TRP83       0.0015
     15  N         -4.8620   36.0960    8.5800 N.am   84  HIS84      -0.1961
     16  CA        -6.1680   36.6630    8.9940 C.3    84  HIS84       0.1787
     17  C         -6.1130   37.6110   10.1830 C.2    84  HIS84       0.2620
     18  O         -7.1350   38.2510   10.4860 O.2    84  HIS84      -0.2715
     19  CB        -7.1340   35.5010    9.3230 C.3    84  HIS84       0.0785
     20  CG        -6.7530   34.7560   10.5570 C.ar   84  HIS84       0.0821
     21  ND1       -5.7270   33.8320   10.5950 N.ar   84  HIS84      -0.2267
     22  CD2       -7.2030   34.8620   11.8250 C.ar   84  HIS84       0.1154
     23  CE1       -5.5620   33.4070   11.8290 C.ar   84  HIS84       0.1986
     24  NE2       -6.4460   34.0170   12.6030 N.ar   84  HIS84      -0.2212
     25  N         -4.9710   37.7110   10.8760 N.am   85  SER85      -0.1950
     26  CA        -4.7890   38.5280   12.0740 C.3    85  SER85       0.1924
     27  C         -3.9290   39.7660   11.7890 C.2    85  SER85       0.2314
     28  O         -3.1030   39.7350   10.8660 O.2    85  SER85      -0.2863
     29  CB        -4.1350   37.6830   13.1740 C.3    85  SER85       0.2116
     30  OG        -4.2910   38.2720   14.4430 O.3    85  SER85      -0.2180
     31  N          0.0600   32.0690    6.9220 N.3   131  ASN131     -0.1225
     32  CA         0.1110   31.7490    8.4010 C.3   131  ASN131      0.1785
     33  C         -1.3100   31.2780    8.7690 C.2   131  ASN131      0.2597
     34  O         -2.2920   31.9330    8.3970 O.2   131  ASN131     -0.2718
     35  CB         0.4340   33.0240    9.2330 C.3   131  ASN131      0.1169
     36  CG         1.2100   32.7720   10.5370 C.2   131  ASN131      0.2627
     37  OD1        1.9900   31.8260   10.6390 O.2   131  ASN131     -0.2716
     38  ND2        1.0120   33.6450   11.5490 N.am  131  ASN131     -0.0877
     39  N         -1.4130   30.1240    9.4350 N.am  132  GLU132     -0.1979
     40  CA        -2.5920   29.7810   10.2480 C.3   132  GLU132      0.1602
     41  C         -3.8820   29.6090    9.4390 C.2   132  GLU132      0.2287
     42  O         -4.9480   30.1590    9.7800 O.2   132  GLU132     -0.2864
     43  CB        -2.7390   30.8000   11.3670 C.3   132  GLU132      0.0415
     44  CG        -1.5660   30.8390   12.3470 C.3   132  GLU132      0.1163
     45  CD        -1.7000   31.8570   13.4640 C.2   132  GLU132      0.3649
     46  OE1       -2.7690   32.5000   13.5810 O.co2 132  GLU132     -0.2457
     47  OE2       -0.7150   32.0130   14.2240 O.co2 132  GLU132     -0.2457
     48  N         -8.8210   25.4300   14.2120 N.3   136  ASP136     -0.1239
     49  CA        -8.5950   24.4840   15.2940 C.3   136  ASP136      0.1674
     50  C         -9.6340   23.3900   15.4010 C.2   136  ASP136      0.2266
     51  O         -9.3870   22.3970   16.0770 O.2   136  ASP136     -0.2867
     52  CB        -8.4250   25.2170   16.5620 C.3   136  ASP136      0.1410
     53  CG        -7.0910   25.9420   16.6250 C.2   136  ASP136      0.3668
     54  OD1       -5.9810   25.3010   16.4790 O.co2 136  ASP136     -0.2456
     55  OD2       -7.1020   27.1380   16.9260 O.co2 136  ASP136     -0.2456
     56  N          0.4130   27.0530   14.2020 N.3   175  TYR175     -0.1227
     57  CA         0.5310   26.6150   15.6020 C.3   175  TYR175      0.1736
     58  C         -0.3240   25.3730   15.8430 C.2   175  TYR175      0.2595
     59  O         -1.3400   25.1310   15.1500 O.2   175  TYR175     -0.2718
     60  CB         0.0960   27.7460   16.5790 C.3   175  TYR175      0.0548
     61  CG        -1.3840   28.0700   16.5280 C.ar  175  TYR175     -0.0200
     62  CD1       -2.3040   27.3950   17.3280 C.ar  175  TYR175     -0.0009
     63  CD2       -1.8690   29.0320   15.6650 C.ar  175  TYR175     -0.0009
     64  CE1       -3.6610   27.6900   17.2770 C.ar  175  TYR175      0.0417
     65  CE2       -3.2140   29.3420   15.6110 C.ar  175  TYR175      0.0417
     66  CZ        -4.1070   28.6610   16.3960 C.ar  175  TYR175      0.1957
     67  OH        -5.4510   28.9760   16.2900 O.3   175  TYR175     -0.2866
     68  N          0.0880   24.5900   16.8420 N.am  176  ASN176     -0.1974
     69  CA        -0.6370   23.3770   17.2540 C.3   176  ASN176      0.1688
     70  C         -0.5810   22.2830   16.1980 C.2   176  ASN176      0.2292
     71  O         -1.2570   21.2740   16.3210 O.2   176  ASN176     -0.2864
     72  CB        -2.0850   23.6870   17.6900 C.3   176  ASN176      0.1181
     73  CG        -2.1800   24.2270   19.0940 C.2   176  ASN176      0.2629
     74  OD1       -1.1830   24.2510   19.8460 O.2   176  ASN176     -0.2716
     75  ND2       -3.4030   24.6860   19.4730 N.am  176  ASN176     -0.0877
     76  N          0.4560   18.6290   17.0910 N.3   179  ARG179     -0.1245
     77  CA        -0.5140   17.7200   17.7000 C.3   179  ARG179      0.1563
     78  C         -1.3110   16.9160   16.7080 C.2   179  ARG179      0.2260
     79  O         -1.6160   17.3670   15.6100 O.2   179  ARG179     -0.2867
     80  CB        -1.4880   18.5350   18.5490 C.3   179  ARG179      0.0307
     81  CG        -0.9050   19.1600   19.8210 C.3   179  ARG179      0.0489
     82  CD        -1.7650   20.3130   20.3380 C.3   179  ARG179      0.2205
     83  NE        -1.1920   20.9980   21.5110 N.pl3 179  ARG179     -0.0865
     84  CZ        -1.3170   20.5700   22.7860 C.cat 179  ARG179      0.5346
     85  NH1       -1.9640   19.4310   23.0640 N.pl3 179  ARG179      0.1354
     86  NH2       -0.7770   21.2710   23.7910 N.pl3 179  ARG179      0.1354
     87  N          5.1850   26.5020   14.6790 N.3   206  GLN206     -0.1245
     88  CA         5.4070   27.6610   15.5480 C.3   206  GLN206      0.1566
     89  C          6.1300   27.2650   16.8240 C.2   206  GLN206      0.2260
     90  O          7.0810   27.9290   17.2090 O.2   206  GLN206     -0.2867
     91  CB         4.1320   28.4520   15.8200 C.3   206  GLN206      0.0367
     92  CG         3.7000   29.2510   14.6130 C.3   206  GLN206      0.0905
     93  CD         2.4670   30.0820   14.8760 C.2   206  GLN206      0.2608
     94  OE1        2.1210   30.3250   16.0310 O.2   206  GLN206     -0.2717
     95  NE2        1.7630   30.4820   13.7980 N.am  206  GLN206     -0.0878
     96  N          4.8280   27.1340   19.9860 N.3   208  HIS208     -0.1226
     97  CA         4.3420   27.8010   21.2060 C.3   208  HIS208      0.1752
     98  C          3.9620   26.6980   22.1750 C.2   208  HIS208      0.2595
     99  O          2.8490   26.1760   22.1120 O.2   208  HIS208     -0.2718
    100  CB         3.1440   28.6850   20.8920 C.3   208  HIS208      0.0759
    101  CG         3.5190   29.9160   20.1400 C.ar  208  HIS208      0.0818
    102  ND1        4.4770   30.7940   20.5930 N.ar  208  HIS208     -0.2268
    103  CD2        3.0830   30.4030   18.9550 C.ar  208  HIS208      0.1154
    104  CE1        4.6140   31.7820   19.7190 C.ar  208  HIS208      0.1986
    105  NE2        3.7820   31.5660   18.7120 N.ar  208  HIS208     -0.2212
    106  N          4.8930   26.3050   23.0090 N.am  209  LEU209     -0.1980
    107  CA         4.7340   25.1310   23.8610 C.3   209  LEU209      0.1596
    108  C          4.3410   25.4990   25.2850 C.2   209  LEU209      0.2287
    109  O          4.5540   26.6170   25.7300 O.2   209  LEU209     -0.2864
    110  CB         6.0320   24.3490   23.9540 C.3   209  LEU209      0.0297
    111  CG         6.7600   23.9270   22.6830 C.3   209  LEU209      0.0022
    112  CD1        8.0770   23.2350   23.1440 C.3   209  LEU209      0.0001
    113  CD2        5.8770   23.0730   21.8030 C.3   209  LEU209      0.0001
    114  N          4.5520   21.5620   30.1190 N.3   212  ASP212     -0.1225
    115  CA         4.3420   20.1080   30.0250 C.3   212  ASP212      0.1805
    116  C          3.9380   19.6040   28.6300 C.2   212  ASP212      0.2598
    117  O          4.5320   18.6360   28.1250 O.2   212  ASP212     -0.2718
    118  CB         3.3080   19.6500   31.0640 C.3   212  ASP212      0.1424
    119  CG         3.7460   19.9240   32.4830 C.2   212  ASP212      0.3668
    120  OD1        4.8360   19.4410   32.8650 O.co2 212  ASP212     -0.2456
    121  OD2        3.0640   20.6060   33.2830 O.co2 212  ASP212     -0.2456
    122  N          2.9600   20.2500   28.0050 N.am  213  THR213     -0.1953
    123  CA         2.3210   19.7740   26.7730 C.3   213  THR213      0.1897
    124  C          2.7240   20.6830   25.6160 C.2   213  THR213      0.2313
    125  O          2.9620   21.8780   25.8420 O.2   213  THR213     -0.2863
    126  CB         0.7710   19.8750   26.8820 C.3   213  THR213      0.1794
    127  OG1        0.3980   21.2440   27.1650 O.3   213  THR213     -0.2208
    128  CG2        0.2420   19.0310   28.0460 C.3   213  THR213      0.0378
    129  N         -2.4360   27.6030   33.0150 N.3   245  SER245     -0.1217
    130  CA        -3.0800   27.5580   31.7370 C.3   245  SER245      0.1889
    131  C         -4.5750   27.7140   31.8550 C.2   245  SER245      0.2288
    132  O         -5.2150   27.0880   32.7350 O.2   245  SER245     -0.2866
    133  CB        -2.7870   26.2150   31.0790 C.3   245  SER245      0.2089
    134  OG        -3.4070   26.1620   29.8070 O.3   245  SER245     -0.2183
    135  N         -6.4350   27.4060   28.8580 N.3   247  TRP247     -0.1227
    136  CA        -6.9180   26.9450   27.5630 C.3   247  TRP247      0.1737
    137  C         -8.0420   25.9300   27.6620 C.2   247  TRP247      0.2595
    138  O         -8.9410   25.9460   26.8210 O.2   247  TRP247     -0.2718
    139  CB        -5.7680   26.3890   26.7130 C.3   247  TRP247      0.0564
    140  CG        -4.8070   27.4620   26.3450 C.ar  247  TRP247      0.0003
    141  CD1       -3.4920   27.5510   26.7140 C.ar  247  TRP247      0.0946
    142  CD2       -5.0770   28.6280   25.5550 C.ar  247  TRP247      0.0152
    143  NE1       -2.9380   28.7030   26.2010 N.ar  247  TRP247     -0.2442
    144  CE2       -3.8790   29.3740   25.4740 C.ar  247  TRP247      0.0810
    145  CE3       -6.2070   29.1140   24.8900 C.ar  247  TRP247      0.0012
    146  CZ2       -3.7850   30.5840   24.7660 C.ar  247  TRP247      0.0191
    147  CZ3       -6.1090   30.3100   24.1820 C.ar  247  TRP247      0.0001
    148  CH2       -4.9060   31.0260   24.1240 C.ar  247  TRP247      0.0015
    149  N         -8.0270   25.0890   28.6890 N.am  248  GLU248     -0.1979
    150  CA        -9.0280   24.0250   28.7840 C.3   248  GLU248      0.1602
    151  C         -9.8990   24.0400   30.0480 C.2   248  GLU248      0.2287
    152  O        -10.1810   22.9980   30.6360 O.2   248  GLU248     -0.2864
    153  CB        -8.3300   22.6870   28.6240 C.3   248  GLU248      0.0415
    154  CG        -7.6890   22.5710   27.2540 C.3   248  GLU248      0.1163
    155  CD        -7.2000   21.1860   26.9500 C.2   248  GLU248      0.3649
    156  OE1       -6.9740   20.4010   27.9080 O.co2 248  GLU248     -0.2457
    157  OE2       -7.0150   20.9050   25.7390 O.co2 248  GLU248     -0.2457
    158  N          5.6310   38.0800   24.1080 N.3   311  TRP311     -0.1227
    159  CA         4.1950   38.3150   23.9390 C.3   311  TRP311      0.1737
    160  C          3.3450   37.5530   24.9700 C.2   311  TRP311      0.2595
    161  O          2.1990   37.8750   25.1620 O.2   311  TRP311     -0.2718
    162  CB         3.7600   37.9300   22.5200 C.3   311  TRP311      0.0564
    163  CG         3.6820   36.4290   22.2500 C.ar  311  TRP311      0.0003
    164  CD1        4.6860   35.4930   22.4190 C.ar  311  TRP311      0.0946
    165  CD2        2.5590   35.7190   21.7720 C.ar  311  TRP311      0.0152
    166  NE1        4.2190   34.2480   22.1100 N.ar  311  TRP311     -0.2442
    167  CE2        2.9230   34.3580   21.6770 C.ar  311  TRP311      0.0810
    168  CE3        1.2490   36.0810   21.4150 C.ar  311  TRP311      0.0012
    169  CZ2        2.0420   33.3690   21.2480 C.ar  311  TRP311      0.0191
    170  CZ3        0.3780   35.0810   20.9620 C.ar  311  TRP311      0.0001
    171  CH2        0.7800   33.7460   20.8880 C.ar  311  TRP311      0.0015
    172  N          3.9360   36.5390   25.6030 N.am  312  LEU312     -0.1980
    173  CA         3.2370   35.7100   26.5910 C.3   312  LEU312      0.1596
    174  C          3.0360   36.4140   27.9060 C.2   312  LEU312      0.2287
    175  O          2.2590   35.9300   28.7340 O.2   312  LEU312     -0.2864
    176  CB         3.9360   34.3940   26.8120 C.3   312  LEU312      0.0297
    177  CG         3.9870   33.4640   25.5930 C.3   312  LEU312      0.0022
    178  CD1        4.6510   32.1600   25.9770 C.3   312  LEU312      0.0001
    179  CD2        2.6390   33.1870   25.0010 C.3   312  LEU312      0.0001
    180  N         -0.4570   37.6720   26.6160 N.3   315  PHE315     -0.1241
    181  CA        -1.3300   36.7690   25.9460 C.3   315  PHE315      0.1605
    182  C         -1.1900   35.4080   26.6080 C.2   315  PHE315      0.2264
    183  O         -0.0550   34.9680   26.8050 O.2   315  PHE315     -0.2867
    184  CB        -0.9440   36.6500   24.4680 C.3   315  PHE315      0.0534
    185  CG        -1.8160   35.6900   23.7160 C.ar  315  PHE315     -0.0203
    186  CD1       -3.0210   36.1030   23.1830 C.ar  315  PHE315     -0.0042
    187  CD2       -1.4460   34.3680   23.5910 C.ar  315  PHE315     -0.0042
    188  CE1       -3.8390   35.1720   22.5100 C.ar  315  PHE315     -0.0003
    189  CE2       -2.2680   33.4560   22.9330 C.ar  315  PHE315     -0.0003
    190  CZ        -3.4360   33.8730   22.4020 C.ar  315  PHE315     -0.0000
@<TRIPOS>BOND
     1     1     2    1
     2    31    32    1
     3     4     3    2
     4     2     3    1
     5     2     5    1
     6     3    15   am
     7    34    33    2
     8    32    33    1
     9    32    35    1
    10     5     6    1
    11    15    16    1
    12    33    39   am
    13    16    19    1
    14    16    17    1
    15    35    36    1
    16    19    20    1
    17    39    40    1
    18    41    42    2
    19    41    40    1
    20     6     7   ar
    21     6     8   ar
    22     7     9   ar
    23    17    18    2
    24    17    25   am
    25    40    43    1
    26    36    37    2
    27    36    38   am
    28    20    21   ar
    29    20    22   ar
    30    21    23   ar
    31    28    27    2
    32    25    26    1
    33     8    11   ar
    34     8    10   ar
    35    11    13   ar
    36    43    44    1
    37     9    10   ar
    38    27    26    1
    39    22    24   ar
    40    23    24   ar
    41    10    12   ar
    42    26    29    1
    43    44    45    1
    44    13    14   ar
    45    29    30    1
    46    12    14   ar
    47    45    46   ar
    48    45    47   ar
    49    95    93   am
    50    56    57    1
    51    48    49    1
    52    92    93    1
    53    92    91    1
    54    87    88    1
    55    93    94    2
    56    59    58    2
    57    49    50    1
    58    49    52    1
    59    50    51    2
    60    88    91    1
    61    88    89    1
    62    57    58    1
    63    57    60    1
    64    79    78    2
    65    65    63   ar
    66    65    66   ar
    67    63    61   ar
    68    58    68   am
    69    70    71    2
    70    70    69    1
    71    67    66    1
    72    66    64   ar
    73    54    53   ar
    74    61    60    1
    75    61    62   ar
    76    52    53    1
    77    53    55   ar
    78    78    77    1
    79    89    90    2
    80    68    69    1
    81    76    77    1
    82    69    72    1
    83    64    62   ar
    84    72    73    1
    85    77    80    1
    86    80    81    1
    87   105   103   ar
    88   105   104   ar
    89   103   101   ar
    90    73    75   am
    91    73    74    2
    92   104   102   ar
    93    81    82    1
    94    96    97    1
    95   101   102   ar
    96   101   100    1
    97    82    83    1
    98   171   170   ar
    99   171   169   ar
   100   100    97    1
   101   170   168   ar
   102    97    98    1
   103   169   167   ar
   104   168   165   ar
   105    83    84    2
   106   167   165   ar
   107   167   166   ar
   108   165   163   ar
   109   113   111    1
   110   166   164   ar
   111    99    98    2
   112    98   106   am
   113   163   164   ar
   114   163   162    1
   115   190   188   ar
   116   190   189   ar
   117   188   186   ar
   118   162   159    1
   119   111   112    1
   120   111   110    1
   121    84    85    1
   122    84    86    1
   123   189   187   ar
   124   106   107    1
   125   186   185   ar
   126   187   185   ar
   127   185   184    1
   128   107   110    1
   129   107   108    1
   130   159   158    1
   131   159   160    1
   132   148   147   ar
   133   148   146   ar
   134   147   145   ar
   135   184   181    1
   136   146   144   ar
   137   145   142   ar
   138   160   161    2
   139   160   172   am
   140   179   177    1
   141   108   109    2
   142   144   142   ar
   143   144   143   ar
   144   142   140   ar
   145   177   178    1
   146   177   176    1
   147   172   173    1
   148   124   125    2
   149   124   123    1
   150   157   155   ar
   151   181   182    1
   152   181   180    1
   153   143   141   ar
   154   140   139    1
   155   140   141   ar
   156   173   176    1
   157   173   174    1
   158   182   183    2
   159   139   136    1
   160   123   126    1
   161   123   122    1
   162   138   137    2
   163   126   127    1
   164   126   128    1
   165   155   154    1
   166   155   156   ar
   167   154   153    1
   168   136   137    1
   169   136   135    1
   170   137   149   am
   171   174   175    2
   172   122   116   am
   173   117   116    2
   174   153   150    1
   175   116   115    1
   176   149   150    1
   177   150   151    1
   178   134   133    1
   179   115   114    1
   180   115   118    1
   181   151   152    2
   182   118   119    1
   183   133   130    1
   184   130   131    1
   185   130   129    1
   186   131   132    2
   187   119   120   ar
   188   119   121   ar
