@<TRIPOS>MOLECULE
tmp/1uqzA00.pdb
 204 200 0 0 0
SMALL
GASTEIGER

@<TRIPOS>ATOM
      1  N         -2.2610   36.6720    6.2150 N.3    83  TRP83      -0.1227
      2  CA        -2.6800   36.2000    7.5260 C.3    83  TRP83       0.1737
      3  C         -3.9850   36.9260    7.8670 C.2    83  TRP83       0.2595
      4  O         -4.2130   38.0500    7.4290 O.2    83  TRP83      -0.2718
      5  CB        -1.5990   36.5800    8.5440 C.3    83  TRP83       0.0564
      6  CG        -1.7570   36.0330    9.9510 C.ar   83  TRP83       0.0003
      7  CD1       -2.3610   34.8560   10.3460 C.ar   83  TRP83       0.0946
      8  CD2       -1.2550   36.6460   11.1370 C.ar   83  TRP83       0.0152
      9  NE1       -2.2530   34.7110   11.7100 N.ar   83  TRP83      -0.2442
     10  CE2       -1.5510   35.7780   12.2180 C.ar   83  TRP83       0.0810
     11  CE3       -0.5320   37.8250   11.3880 C.ar   83  TRP83       0.0012
     12  CZ2       -1.1690   36.0660   13.5320 C.ar   83  TRP83       0.0191
     13  CZ3       -0.1810   38.1320   12.6810 C.ar   83  TRP83       0.0001
     14  CH2       -0.5070   37.2470   13.7480 C.ar   83  TRP83       0.0015
     15  N         -4.8270   36.2870    8.6820 N.am   84  HIS84      -0.1961
     16  CA        -6.1100   36.8830    9.0560 C.3    84  HIS84       0.1787
     17  C         -6.0520   37.8410   10.2610 C.2    84  HIS84       0.2620
     18  O         -7.0570   38.5030   10.5700 O.2    84  HIS84      -0.2715
     19  CB        -7.0930   35.7640    9.3720 C.3    84  HIS84       0.0785
     20  CG        -6.7420   35.0380   10.6270 C.ar   84  HIS84       0.0821
     21  ND1       -5.7280   34.1040   10.6790 N.ar   84  HIS84      -0.2267
     22  CD2       -7.2170   35.1560   11.8900 C.ar   84  HIS84       0.1154
     23  CE1       -5.6090   33.6630   11.9190 C.ar   84  HIS84       0.1986
     24  NE2       -6.4930   34.2940   12.6750 N.ar   84  HIS84      -0.2212
     25  N         -4.9090   37.9160   10.9480 N.am   85  SER85      -0.1950
     26  CA        -4.7510   38.7510   12.1360 C.3    85  SER85       0.1924
     27  C         -3.8910   39.9930   11.8470 C.2    85  SER85       0.2314
     28  O         -3.0780   39.9830   10.9120 O.2    85  SER85      -0.2863
     29  CB        -4.1540   37.9230   13.2810 C.3    85  SER85       0.2116
     30  OG        -4.2800   38.5900   14.5160 O.3    85  SER85      -0.2180
     31  N         -1.2610   30.4410    9.6540 N.3   132  GLU132     -0.1245
     32  CA        -2.4490   30.0950   10.4460 C.3   132  GLU132      0.1567
     33  C         -3.7420   29.8800    9.6500 C.2   132  GLU132      0.2260
     34  O         -4.7850   30.4530    9.9890 O.2   132  GLU132     -0.2867
     35  CB        -2.6490   31.1330   11.5580 C.3   132  GLU132      0.0388
     36  CG        -1.5040   31.1320   12.5590 C.3   132  GLU132      0.1160
     37  CD        -1.6660   32.1320   13.6850 C.2   132  GLU132      0.3649
     38  OE1       -2.7270   32.7940   13.7970 O.co2 132  GLU132     -0.2457
     39  OE2       -0.7050   32.2600   14.4540 O.co2 132  GLU132     -0.2457
     40  N         -8.9040   25.7650   14.4810 N.3   136  ASP136     -0.1239
     41  CA        -8.6990   24.8420   15.5850 C.3   136  ASP136      0.1674
     42  C         -9.6980   23.6920   15.6150 C.2   136  ASP136      0.2266
     43  O         -9.4390   22.6750   16.2510 O.2   136  ASP136     -0.2867
     44  CB        -8.5420   25.5910   16.8890 C.3   136  ASP136      0.1410
     45  CG        -7.1820   26.2950   16.9680 C.2   136  ASP136      0.3668
     46  OD1       -6.1140   25.6250   16.7950 O.co2 136  ASP136     -0.2456
     47  OD2       -7.0900   27.5110   17.1830 O.co2 136  ASP136     -0.2456
     48  N         -9.5300   27.5850    8.3110 N.3   141  ARG141     -0.1245
     49  CA        -9.9130   28.6950    9.1650 C.3   141  ARG141      0.1563
     50  C        -10.8810   29.5840    8.4130 C.2   141  ARG141      0.2260
     51  O        -10.6430   29.9230    7.2410 O.2   141  ARG141     -0.2867
     52  CB        -8.6910   29.5180    9.5930 C.3   141  ARG141      0.0307
     53  CG        -9.0550   30.7230   10.4520 C.3   141  ARG141      0.0489
     54  CD        -7.8640   31.5480   10.8650 C.3   141  ARG141      0.2205
     55  NE        -6.9890   30.7690   11.7460 N.pl3 141  ARG141     -0.0865
     56  CZ        -7.1860   30.6020   13.0560 C.cat 141  ARG141      0.5346
     57  NH1       -8.2260   31.1810   13.6630 N.pl3 141  ARG141      0.1354
     58  NH2       -6.3300   29.8610   13.7610 N.pl3 141  ARG141      0.1354
     59  N          0.4520   27.2630   14.3560 N.3   175  TYR175     -0.1227
     60  CA         0.5660   26.7740   15.7410 C.3   175  TYR175      0.1736
     61  C         -0.3090   25.5320   15.9700 C.2   175  TYR175      0.2595
     62  O         -1.3020   25.2810   15.2720 O.2   175  TYR175     -0.2718
     63  CB         0.2050   27.9010   16.7490 C.3   175  TYR175      0.0548
     64  CG        -1.2540   28.2910   16.7010 C.ar  175  TYR175     -0.0200
     65  CD1       -2.2010   27.6050   17.4660 C.ar  175  TYR175     -0.0009
     66  CD2       -1.6950   29.3220   15.8610 C.ar  175  TYR175     -0.0009
     67  CE1       -3.5580   27.9420   17.4090 C.ar  175  TYR175      0.0417
     68  CE2       -3.0370   29.6710   15.7970 C.ar  175  TYR175      0.0417
     69  CZ        -3.9640   28.9770   16.5490 C.ar  175  TYR175      0.1957
     70  OH        -5.3040   29.3260   16.4910 O.3   175  TYR175     -0.2866
     71  N          0.0880   24.7550   16.9770 N.am  176  ASN176     -0.1974
     72  CA        -0.6000   23.5340   17.3860 C.3   176  ASN176      0.1688
     73  C         -0.5420   22.4390   16.3460 C.2   176  ASN176      0.2292
     74  O         -1.2180   21.4180   16.4820 O.2   176  ASN176     -0.2864
     75  CB        -2.0420   23.8010   17.8450 C.3   176  ASN176      0.1181
     76  CG        -2.1120   24.3890   19.2420 C.2   176  ASN176      0.2629
     77  OD1       -1.1270   24.3740   19.9990 O.2   176  ASN176     -0.2716
     78  ND2       -3.2750   24.9230   19.5890 N.am  176  ASN176     -0.0877
     79  N          0.4820   18.8490   17.2120 N.3   179  ARG179     -0.1245
     80  CA        -0.5100   17.9650   17.8290 C.3   179  ARG179      0.1563
     81  C         -1.2930   17.1400   16.8360 C.2   179  ARG179      0.2260
     82  O         -1.5580   17.5660   15.7100 O.2   179  ARG179     -0.2867
     83  CB        -1.4870   18.7890   18.6610 C.3   179  ARG179      0.0307
     84  CG        -0.8560   19.5350   19.8220 C.3   179  ARG179      0.0489
     85  CD        -1.7990   20.5190   20.4590 C.3   179  ARG179      0.2205
     86  NE        -1.2060   21.1880   21.6130 N.pl3 179  ARG179     -0.0865
     87  CZ        -1.2060   20.6920   22.8520 C.cat 179  ARG179      0.5346
     88  NH1       -1.7520   19.5010   23.1110 N.pl3 179  ARG179      0.1354
     89  NH2       -0.6580   21.3860   23.8360 N.pl3 179  ARG179      0.1354
     90  N          5.1570   26.6690   14.8210 N.3   206  GLN206     -0.1245
     91  CA         5.4270   27.8330   15.6700 C.3   206  GLN206      0.1566
     92  C          6.1370   27.4690   16.9700 C.2   206  GLN206      0.2260
     93  O          7.1080   28.1340   17.3590 O.2   206  GLN206     -0.2867
     94  CB         4.1650   28.6420   15.9580 C.3   206  GLN206      0.0367
     95  CG         3.7190   29.4400   14.7280 C.3   206  GLN206      0.0905
     96  CD         2.5080   30.2980   14.9960 C.2   206  GLN206      0.2608
     97  OE1        2.1490   30.5490   16.1450 O.2   206  GLN206     -0.2717
     98  NE2        1.8440   30.7240   13.9210 N.am  206  GLN206     -0.0878
     99  N          4.8390   27.3930   20.1190 N.3   208  HIS208     -0.1226
    100  CA         4.3690   28.0140   21.3600 C.3   208  HIS208      0.1752
    101  C          3.9820   26.8970   22.3240 C.2   208  HIS208      0.2595
    102  O          2.8460   26.3970   22.2750 O.2   208  HIS208     -0.2718
    103  CB         3.1780   28.9020   21.0490 C.3   208  HIS208      0.0759
    104  CG         3.5580   30.1340   20.2990 C.ar  208  HIS208      0.0818
    105  ND1        4.4930   31.0290   20.7740 N.ar  208  HIS208     -0.2268
    106  CD2        3.1580   30.6060   19.0930 C.ar  208  HIS208      0.1154
    107  CE1        4.6430   32.0110   19.9010 C.ar  208  HIS208      0.1986
    108  NE2        3.8440   31.7790   18.8770 N.ar  208  HIS208     -0.2212
    109  N          4.9290   26.5020   23.1670 N.am  209  LEU209     -0.1980
    110  CA         4.7730   25.3140   24.0130 C.3   209  LEU209      0.1596
    111  C          4.3700   25.6740   25.4150 C.2   209  LEU209      0.2287
    112  O          4.5920   26.7920   25.8580 O.2   209  LEU209     -0.2864
    113  CB         6.0950   24.5260   24.1060 C.3   209  LEU209      0.0297
    114  CG         6.7700   24.1250   22.7860 C.3   209  LEU209      0.0022
    115  CD1        8.0730   23.3760   23.0820 C.3   209  LEU209      0.0001
    116  CD2        5.8280   23.3210   21.8960 C.3   209  LEU209      0.0001
    117  N          2.9790   20.4660   28.1620 N.3   213  THR213     -0.1218
    118  CA         2.3090   19.9920   26.9440 C.3   213  THR213      0.1862
    119  C          2.7250   20.8890   25.7750 C.2   213  THR213      0.2287
    120  O          2.9880   22.0770   25.9920 O.2   213  THR213     -0.2866
    121  CB         0.7390   20.0850   27.1170 C.3   213  THR213      0.1770
    122  OG1        0.3830   21.3480   27.6870 O.3   213  THR213     -0.2211
    123  CG2        0.2480   19.0560   28.1240 C.3   213  THR213      0.0375
    124  N          5.4690   28.5650   27.9490 N.3   241  ASP241     -0.1239
    125  CA         4.5960   29.2940   28.8770 C.3   241  ASP241      0.1674
    126  C          4.6560   28.5660   30.2240 C.2   241  ASP241      0.2266
    127  O          4.2540   27.4090   30.3170 O.2   241  ASP241     -0.2867
    128  CB         3.1740   29.2580   28.3210 C.3   241  ASP241      0.1410
    129  CG         2.2260   30.1510   29.0890 C.2   241  ASP241      0.3668
    130  OD1        2.5650   30.5390   30.2450 O.co2 241  ASP241     -0.2456
    131  OD2        1.1330   30.5440   28.6050 O.co2 241  ASP241     -0.2456
    132  N         -2.4440   27.8310   33.1410 N.3   245  SER245     -0.1217
    133  CA        -3.1110   27.7940   31.8480 C.3   245  SER245      0.1889
    134  C         -4.6100   27.9960   31.9590 C.2   245  SER245      0.2288
    135  O         -5.2520   27.4770   32.8830 O.2   245  SER245     -0.2866
    136  CB        -2.8370   26.4420   31.1910 C.3   245  SER245      0.2089
    137  OG        -3.6520   26.2730   30.0290 O.3   245  SER245     -0.2183
    138  N         -6.3360   27.4930   29.0040 N.3   247  TRP247     -0.1227
    139  CA        -6.7700   26.8390   27.7740 C.3   247  TRP247      0.1737
    140  C         -7.7380   25.6700   27.9830 C.2   247  TRP247      0.2595
    141  O         -8.3840   25.2330   27.0280 O.2   247  TRP247     -0.2718
    142  CB        -5.5550   26.3790   26.9680 C.3   247  TRP247      0.0564
    143  CG        -4.6210   27.5090   26.5740 C.ar  247  TRP247      0.0003
    144  CD1       -3.2990   27.6410   26.9150 C.ar  247  TRP247      0.0946
    145  CD2       -4.9350   28.6460   25.7580 C.ar  247  TRP247      0.0152
    146  NE1       -2.7780   28.7930   26.3690 N.ar  247  TRP247     -0.2442
    147  CE2       -3.7580   29.4310   25.6530 C.ar  247  TRP247      0.0810
    148  CE3       -6.0970   29.0910   25.1060 C.ar  247  TRP247      0.0012
    149  CZ2       -3.7060   30.6240   24.9180 C.ar  247  TRP247      0.0191
    150  CZ3       -6.0460   30.2860   24.3750 C.ar  247  TRP247      0.0001
    151  CH2       -4.8550   31.0360   24.2890 C.ar  247  TRP247      0.0015
    152  N         -7.8370   25.1620   29.2090 N.am  248  GLU248     -0.1979
    153  CA        -8.6060   23.9280   29.4770 C.3   248  GLU248      0.1602
    154  C         -9.6010   24.0920   30.6260 C.2   248  GLU248      0.2287
    155  O         -9.7530   23.1980   31.4670 O.2   248  GLU248     -0.2864
    156  CB        -7.6470   22.7790   29.8090 C.3   248  GLU248      0.0415
    157  CG        -8.1580   21.3870   29.4590 C.3   248  GLU248      0.1163
    158  CD        -7.7040   20.9340   28.0820 C.2   248  GLU248      0.3649
    159  OE1       -6.6480   21.4180   27.6180 O.co2 248  GLU248     -0.2457
    160  OE2       -8.3980   20.0870   27.4670 O.co2 248  GLU248     -0.2457
    161  N         -9.9210   34.8490   30.4960 N.3   258  PHE258     -0.1241
    162  CA        -8.8740   35.7620   30.0350 C.3   258  PHE258      0.1605
    163  C         -8.7400   37.0000   30.9330 C.2   258  PHE258      0.2264
    164  O         -7.9410   37.9070   30.6640 O.2   258  PHE258     -0.2867
    165  CB        -9.0790   36.1230   28.5660 C.3   258  PHE258      0.0534
    166  CG        -9.1470   34.9190   27.6660 C.ar  258  PHE258     -0.0203
    167  CD1       -8.0230   34.1310   27.4620 C.ar  258  PHE258     -0.0042
    168  CD2      -10.3520   34.5560   27.0470 C.ar  258  PHE258     -0.0042
    169  CE1       -8.0790   32.9990   26.6380 C.ar  258  PHE258     -0.0003
    170  CE2      -10.4260   33.4310   26.2160 C.ar  258  PHE258     -0.0003
    171  CZ        -9.2840   32.6480   26.0070 C.ar  258  PHE258     -0.0000
    172  N          5.7020   38.2900   24.2300 N.3   311  TRP311     -0.1227
    173  CA         4.2790   38.5200   24.0470 C.3   311  TRP311      0.1737
    174  C          3.4490   37.7390   25.0820 C.2   311  TRP311      0.2595
    175  O          2.2880   38.0410   25.2900 O.2   311  TRP311     -0.2718
    176  CB         3.8370   38.1570   22.6130 C.3   311  TRP311      0.0564
    177  CG         3.7560   36.6720   22.3530 C.ar  311  TRP311      0.0003
    178  CD1        4.7380   35.7430   22.5290 C.ar  311  TRP311      0.0946
    179  CD2        2.6150   35.9700   21.8930 C.ar  311  TRP311      0.0152
    180  NE1        4.2790   34.4900   22.2080 N.ar  311  TRP311     -0.2442
    181  CE2        2.9720   34.6010   21.7950 C.ar  311  TRP311      0.0810
    182  CE3        1.3170   36.3540   21.5180 C.ar  311  TRP311      0.0012
    183  CZ2        2.0770   33.6220   21.3560 C.ar  311  TRP311      0.0191
    184  CZ3        0.4260   35.3790   21.0920 C.ar  311  TRP311      0.0001
    185  CH2        0.8070   34.0210   21.0150 C.ar  311  TRP311      0.0015
    186  N          4.0480   36.7380   25.7300 N.am  312  LEU312     -0.1980
    187  CA         3.2830   35.9330   26.6960 C.3   312  LEU312      0.1596
    188  C          3.0580   36.6580   28.0220 C.2   312  LEU312      0.2287
    189  O          2.2890   36.1710   28.8700 O.2   312  LEU312     -0.2864
    190  CB         3.9540   34.5840   26.9480 C.3   312  LEU312      0.0297
    191  CG         4.0070   33.6730   25.7240 C.3   312  LEU312      0.0022
    192  CD1        4.6680   32.3930   26.1600 C.3   312  LEU312      0.0001
    193  CD2        2.6300   33.3650   25.1320 C.3   312  LEU312      0.0001
    194  N         -0.3960   37.8590   26.6990 N.3   315  PHE315     -0.1241
    195  CA        -1.2460   36.8810   26.0400 C.3   315  PHE315      0.1605
    196  C         -1.0990   35.5350   26.7340 C.2   315  PHE315      0.2264
    197  O          0.0260   35.0800   26.9270 O.2   315  PHE315     -0.2867
    198  CB        -0.8330   36.7140   24.5700 C.3   315  PHE315      0.0534
    199  CG        -1.6470   35.6760   23.8430 C.ar  315  PHE315     -0.0203
    200  CD1       -2.8660   36.0180   23.2650 C.ar  315  PHE315     -0.0042
    201  CD2       -1.2300   34.3420   23.8040 C.ar  315  PHE315     -0.0042
    202  CE1       -3.6420   35.0450   22.6160 C.ar  315  PHE315     -0.0003
    203  CE2       -2.0100   33.3600   23.1620 C.ar  315  PHE315     -0.0003
    204  CZ        -3.2060   33.7250   22.5660 C.ar  315  PHE315     -0.0000
@<TRIPOS>BOND
     1     1     2    1
     2    51    50    2
     3     4     3    2
     4     2     3    1
     5     2     5    1
     6     3    15   am
     7    48    49    1
     8    50    49    1
     9     5     6    1
    10    15    16    1
    11    16    19    1
    12    16    17    1
    13    49    52    1
    14    19    20    1
    15    52    53    1
    16    33    34    2
    17    33    32    1
    18    31    32    1
    19     6     7   ar
    20     6     8   ar
    21    17    18    2
    22    17    25   am
    23     7     9   ar
    24    32    35    1
    25    53    54    1
    26    20    21   ar
    27    20    22   ar
    28    21    23   ar
    29    54    55    1
    30    28    27    2
    31    25    26    1
    32     8    11   ar
    33     8    10   ar
    34    11    13   ar
    35    35    36    1
    36     9    10   ar
    37    55    56    2
    38    27    26    1
    39    22    24   ar
    40    23    24   ar
    41    26    29    1
    42    10    12   ar
    43    36    37    1
    44    13    14   ar
    45    56    57    1
    46    56    58    1
    47    29    30    1
    48    12    14   ar
    49    37    38   ar
    50    37    39   ar
    51    98    96   am
    52    59    60    1
    53    40    41    1
    54    95    96    1
    55    95    94    1
    56    90    91    1
    57    96    97    2
    58    62    61    2
    59    41    42    1
    60    41    44    1
    61    42    43    2
    62    91    94    1
    63    91    92    1
    64    82    81    2
    65    60    61    1
    66    60    63    1
    67    68    66   ar
    68    68    69   ar
    69    66    64   ar
    70    61    71   am
    71    73    74    2
    72    73    72    1
    73    70    69    1
    74    69    67   ar
    75    64    63    1
    76    64    65   ar
    77    46    45   ar
    78    81    80    1
    79    44    45    1
    80    45    47   ar
    81    92    93    2
    82    71    72    1
    83    79    80    1
    84    72    75    1
    85    67    65   ar
    86    80    83    1
    87    75    76    1
    88    83    84    1
    89   108   106   ar
    90   108   107   ar
    91   106   104   ar
    92    76    78   am
    93    76    77    2
    94    84    85    1
    95   107   105   ar
    96    99   100    1
    97   104   105   ar
    98   104   103    1
    99    85    86    1
   100   185   184   ar
   101   185   183   ar
   102   103   100    1
   103   184   182   ar
   104   183   181   ar
   105   100   101    1
   106   182   179   ar
   107    86    87    2
   108   181   179   ar
   109   181   180   ar
   110   179   177   ar
   111   116   114    1
   112   180   178   ar
   113   102   101    2
   114   101   109   am
   115   177   178   ar
   116   177   176    1
   117   204   202   ar
   118   204   203   ar
   119   176   173    1
   120   202   200   ar
   121   114   115    1
   122   114   113    1
   123    87    88    1
   124    87    89    1
   125   203   201   ar
   126   109   110    1
   127   200   199   ar
   128   201   199   ar
   129   199   198    1
   130   110   113    1
   131   110   111    1
   132   173   172    1
   133   173   174    1
   134   151   150   ar
   135   151   149   ar
   136   150   148   ar
   137   198   195    1
   138   149   147   ar
   139   174   175    2
   140   174   186   am
   141   148   145   ar
   142   193   191    1
   143   111   112    2
   144   147   145   ar
   145   147   146   ar
   146   191   192    1
   147   191   190    1
   148   186   187    1
   149   145   143   ar
   150   119   120    2
   151   119   118    1
   152   171   170   ar
   153   171   169   ar
   154   195   194    1
   155   195   196    1
   156   170   168   ar
   157   146   144   ar
   158   143   144   ar
   159   143   142    1
   160   169   167   ar
   161   187   190    1
   162   187   188    1
   163   196   197    2
   164   118   121    1
   165   118   117    1
   166   142   139    1
   167   141   140    2
   168   168   166   ar
   169   121   122    1
   170   121   123    1
   171   167   166   ar
   172   160   158   ar
   173   159   158   ar
   174   166   165    1
   175   139   140    1
   176   139   138    1
   177   124   125    1
   178   140   152   am
   179   188   189    2
   180   158   157    1
   181   128   125    1
   182   128   129    1
   183   165   162    1
   184   131   129   ar
   185   125   126    1
   186   129   130   ar
   187   152   153    1
   188   157   156    1
   189   153   156    1
   190   153   154    1
   191   137   136    1
   192   162   161    1
   193   162   163    1
   194   126   127    2
   195   154   155    2
   196   164   163    2
   197   136   133    1
   198   133   134    1
   199   133   132    1
   200   134   135    2
