@<TRIPOS>MOLECULE
tmp/1ur1A00.pdb
 137 133 0 0 0
SMALL
GASTEIGER

@<TRIPOS>ATOM
      1  N          9.0970   40.6850   14.6420 N.3    42  GLU42      -0.1231
      2  CA         7.9940   40.2320   15.4660 C.3    42  GLU42       0.1699
      3  C          6.6310   40.7450   15.0040 C.2    42  GLU42       0.2592
      4  O          5.6070   40.0470   15.1220 O.2    42  GLU42      -0.2718
      5  CB         8.2520   40.6450   16.9360 C.3    42  GLU42       0.0402
      6  CG         7.3120   39.9840   17.9090 C.3    42  GLU42       0.1161
      7  CD         7.6310   40.2780   19.3580 C.2    42  GLU42       0.3649
      8  OE1        8.7180   40.8080   19.6580 O.co2  42  GLU42      -0.2457
      9  OE2        6.7890   39.9220   20.2180 O.co2  42  GLU42      -0.2457
     10  N          6.6130   41.9930   14.5270 N.am   43  ASN43      -0.1974
     11  CA         5.3520   42.6230   14.0740 C.3    43  ASN43       0.1688
     12  C          5.4140   43.5050   12.8160 C.2    43  ASN43       0.2292
     13  O          4.3880   43.7080   12.1730 O.2    43  ASN43      -0.2864
     14  CB         4.7520   43.5070   15.1660 C.3    43  ASN43       0.1181
     15  CG         4.2050   42.6980   16.3370 C.2    43  ASN43       0.2629
     16  OD1        3.2500   41.9250   16.1590 O.2    43  ASN43      -0.2716
     17  ND2        4.7720   42.9040   17.5410 N.am   43  ASN43      -0.0877
     18  N          3.8210   42.6900    9.3060 N.3    46  LYS46      -0.1245
     19  CA         2.4400   42.2830    9.2530 C.3    46  LYS46       0.1561
     20  C          1.6190   43.3570    8.5360 C.2    46  LYS46       0.2260
     21  O          1.8550   44.5580    8.7360 O.2    46  LYS46      -0.2867
     22  CB         1.9180   42.0280   10.6710 C.3    46  LYS46       0.0271
     23  CG         2.5570   40.8040   11.3060 C.3    46  LYS46       0.0035
     24  CD         2.2110   40.7150   12.8000 C.3    46  LYS46       0.0206
     25  CE         2.9900   39.5450   13.4020 C.3    46  LYS46       0.1093
     26  NZ         2.7620   39.4450   14.9070 N.3    46  LYS46      -0.1314
     27  N          7.9560   37.8590    7.8750 N.3    79  HIS79      -0.1241
     28  CA         6.7870   37.3870    8.6280 C.3    79  HIS79       0.1621
     29  C          5.7490   38.4860    8.6080 C.2    79  HIS79       0.2264
     30  O          6.0060   39.5530    9.1360 O.2    79  HIS79      -0.2867
     31  CB         7.2350   37.0340   10.0500 C.3    79  HIS79       0.0745
     32  CG         6.1180   36.5820   10.9390 C.ar   79  HIS79       0.0817
     33  ND1        5.5270   35.3440   10.8230 N.ar   79  HIS79      -0.2268
     34  CD2        5.4900   37.2000   11.9680 C.ar   79  HIS79       0.1154
     35  CE1        4.5800   35.2270   11.7450 C.ar   79  HIS79       0.1986
     36  NE2        4.5130   36.3510   12.4290 N.ar   79  HIS79      -0.2212
     37  N         -2.1860   36.3720    6.3140 N.3    83  TRP83      -0.1241
     38  CA        -2.6120   35.8970    7.6330 C.3    83  TRP83       0.1605
     39  C         -3.8950   36.6060    7.9970 C.2    83  TRP83       0.2264
     40  O         -4.1400   37.7250    7.5580 O.2    83  TRP83      -0.2867
     41  CB        -1.5280   36.2540    8.6250 C.3    83  TRP83       0.0550
     42  CG        -1.6770   35.7200   10.0410 C.ar   83  TRP83       0.0003
     43  CD1       -2.2720   34.5400   10.4450 C.ar   83  TRP83       0.0946
     44  CD2       -1.1680   36.3260   11.2220 C.ar   83  TRP83       0.0152
     45  NE1       -2.1640   34.3990   11.8100 N.ar   83  TRP83      -0.2442
     46  CE2       -1.4550   35.4660   12.3050 C.ar   83  TRP83       0.0810
     47  CE3       -0.4670   37.5130   11.4690 C.ar   83  TRP83       0.0012
     48  CZ2       -1.0760   35.7690   13.6070 C.ar   83  TRP83       0.0191
     49  CZ3       -0.1360   37.8340   12.7230 C.ar   83  TRP83       0.0001
     50  CH2       -0.4110   36.9480   13.7990 C.ar   83  TRP83       0.0015
     51  N         -3.9970   40.7300   12.7210 N.3    86  GLN86      -0.1245
     52  CA        -3.2400   41.9740   12.5400 C.3    86  GLN86       0.1566
     53  C         -3.3020   42.4570   11.0790 C.2    86  GLN86       0.2260
     54  O         -2.2800   42.7510   10.4510 O.2    86  GLN86      -0.2867
     55  CB        -1.7940   41.8010   13.0280 C.3    86  GLN86       0.0367
     56  CG        -1.7320   41.7300   14.5770 C.3    86  GLN86       0.0905
     57  CD        -0.3640   41.4270   15.0870 C.2    86  GLN86       0.2608
     58  OE1        0.0060   40.2600   15.1800 O.2    86  GLN86      -0.2717
     59  NE2        0.4060   42.4650   15.3750 N.am   86  GLN86      -0.0878
     60  N          0.2390   32.0210    7.1530 N.3   131  ASN131     -0.1225
     61  CA         0.3000   31.7220    8.6070 C.3   131  ASN131      0.1785
     62  C         -1.0960   31.2590    9.0460 C.2   131  ASN131      0.2597
     63  O         -2.1020   31.8910    8.7270 O.2   131  ASN131     -0.2718
     64  CB         0.7250   33.0120    9.3600 C.3   131  ASN131      0.1169
     65  CG         1.3600   32.7730   10.7340 C.2   131  ASN131      0.2627
     66  OD1        2.0440   31.7780   10.9370 O.2   131  ASN131     -0.2716
     67  ND2        1.1650   33.7240   11.6830 N.am  131  ASN131     -0.0877
     68  N         -1.1550   30.1260    9.7280 N.am  132  GLU132     -0.1979
     69  CA        -2.3390   29.7480   10.5290 C.3   132  GLU132      0.1602
     70  C         -3.6400   29.5720    9.7360 C.2   132  GLU132      0.2287
     71  O         -4.6680   30.1530   10.1030 O.2   132  GLU132     -0.2864
     72  CB        -2.5220   30.7330   11.6860 C.3   132  GLU132      0.0415
     73  CG        -1.3260   30.7960   12.6120 C.3   132  GLU132      0.1163
     74  CD        -1.4590   31.7730   13.7340 C.2   132  GLU132      0.3649
     75  OE1       -2.5280   32.4400   13.8810 O.co2 132  GLU132     -0.2457
     76  OE2       -0.4850   31.9030   14.5020 O.co2 132  GLU132     -0.2457
     77  N          3.3340   28.2670    7.9370 N.3   173  ASN173     -0.1240
     78  CA         3.6370   28.3120    9.3720 C.3   173  ASN173      0.1653
     79  C          2.3630   28.1450   10.1910 C.2   173  ASN173      0.2266
     80  O          1.3400   28.7280    9.8500 O.2   173  ASN173     -0.2867
     81  CB         4.2370   29.6800    9.6510 C.3   173  ASN173      0.1155
     82  CG         4.9080   29.8390   11.0270 C.2   173  ASN173      0.2627
     83  OD1        5.7130   29.0170   11.4470 O.2   173  ASN173     -0.2716
     84  ND2        4.6460   31.0010   11.6850 N.am  173  ASN173     -0.0877
     85  N          5.3220   26.3980   14.9100 N.3   206  GLN206     -0.1245
     86  CA         5.5950   27.5560   15.7500 C.3   206  GLN206      0.1566
     87  C          6.2890   27.1850   17.0580 C.2   206  GLN206      0.2260
     88  O          7.2480   27.8170   17.4420 O.2   206  GLN206     -0.2867
     89  CB         4.3160   28.3490   16.0030 C.3   206  GLN206      0.0367
     90  CG         3.8860   29.1680   14.7990 C.3   206  GLN206      0.0905
     91  CD         2.6280   29.9670   15.0390 C.2   206  GLN206      0.2608
     92  OE1        2.2830   30.2620   16.1820 O.2   206  GLN206     -0.2717
     93  NE2        1.9520   30.3780   13.9540 N.am  206  GLN206     -0.0878
     94  N          4.9620   27.1140   20.2680 N.3   208  HIS208     -0.1241
     95  CA         4.4980   27.7580   21.4890 C.3   208  HIS208      0.1621
     96  C          4.0850   26.6250   22.4080 C.2   208  HIS208      0.2264
     97  O          2.9580   26.1150   22.3450 O.2   208  HIS208     -0.2867
     98  CB         3.3550   28.6960   21.2000 C.3   208  HIS208      0.0745
     99  CG         3.7550   29.9000   20.4120 C.ar  208  HIS208      0.0817
    100  ND1        4.6740   30.8000   20.8730 N.ar  208  HIS208     -0.2268
    101  CD2        3.3320   30.3640   19.2050 C.ar  208  HIS208      0.1154
    102  CE1        4.8200   31.7700   19.9860 C.ar  208  HIS208      0.1986
    103  NE2        4.0010   31.5400   18.9750 N.ar  208  HIS208     -0.2212
    104  N          8.8270   29.8820   16.3890 N.3   237  SER237     -0.1217
    105  CA         8.2880   30.8000   17.3650 C.3   237  SER237      0.1889
    106  C          8.3920   30.2140   18.7550 C.2   237  SER237      0.2288
    107  O          7.4490   30.3100   19.5110 O.2   237  SER237     -0.2866
    108  CB         6.8220   31.1070   17.0710 C.3   237  SER237      0.2089
    109  OG         6.6110   31.3210   15.6640 O.3   237  SER237     -0.2183
    110  N         10.6990   33.0530   20.0090 N.3   299  TRP299     -0.1241
    111  CA         9.7840   34.1970   19.7970 C.3   299  TRP299      0.1605
    112  C         10.0950   35.3280   20.8010 C.2   299  TRP299      0.2264
    113  O          9.2680   35.6890   21.6510 O.2   299  TRP299     -0.2867
    114  CB         8.3030   33.7800   19.8030 C.3   299  TRP299      0.0550
    115  CG         7.4790   34.7510   18.9980 C.ar  299  TRP299      0.0003
    116  CD1        6.5280   35.5960   19.4440 C.ar  299  TRP299      0.0946
    117  CD2        7.6050   35.0110   17.5810 C.ar  299  TRP299      0.0152
    118  NE1        6.0770   36.3990   18.4200 N.ar  299  TRP299     -0.2442
    119  CE2        6.7090   36.0490   17.2640 C.ar  299  TRP299      0.0810
    120  CE3        8.3820   34.4700   16.5530 C.ar  299  TRP299      0.0012
    121  CZ2        6.5630   36.5340   15.9780 C.ar  299  TRP299      0.0191
    122  CZ3        8.2490   35.0080   15.2530 C.ar  299  TRP299      0.0001
    123  CH2        7.3520   36.0160   15.0040 C.ar  299  TRP299      0.0015
    124  N          5.7550   38.1060   24.3300 N.3   307  TRP307     -0.1241
    125  CA         4.3310   38.2810   24.1570 C.3   307  TRP307      0.1605
    126  C          3.5100   37.4950   25.1880 C.2   307  TRP307      0.2264
    127  O          2.3410   37.8010   25.3910 O.2   307  TRP307     -0.2867
    128  CB         3.9070   37.9030   22.7220 C.3   307  TRP307      0.0550
    129  CG         3.8320   36.4240   22.4540 C.ar  307  TRP307      0.0003
    130  CD1        4.8330   35.4910   22.5780 C.ar  307  TRP307      0.0946
    131  CD2        2.6910   35.7220   21.9790 C.ar  307  TRP307      0.0152
    132  NE1        4.3450   34.2520   22.2650 N.ar  307  TRP307     -0.2442
    133  CE2        3.0450   34.3670   21.8440 C.ar  307  TRP307      0.0810
    134  CE3        1.3940   36.1040   21.6080 C.ar  307  TRP307      0.0012
    135  CZ2        2.1430   33.4070   21.4120 C.ar  307  TRP307      0.0191
    136  CZ3        0.5220   35.1500   21.1790 C.ar  307  TRP307      0.0001
    137  CH2        0.8850   33.8230   21.0790 C.ar  307  TRP307      0.0015
@<TRIPOS>BOND
     1    37    38    1
     2    60    61    1
     3    40    39    2
     4    38    39    1
     5    38    41    1
     6    27    28    1
     7    77    78    1
     8    20    21    2
     9    20    19    1
    10    61    62    1
    11    61    64    1
    12    29    28    1
    13    29    30    2
    14    41    42    1
    15    28    31    1
    16    63    62    2
    17    62    68   am
    18    19    18    1
    19    19    22    1
    20    64    65    1
    21    78    81    1
    22    78    79    1
    23    81    82    1
    24    68    69    1
    25    70    71    2
    26    70    69    1
    27    80    79    2
    28    42    43   ar
    29    42    44   ar
    30    31    32    1
    31    43    45   ar
    32    54    53    2
    33    69    72    1
    34    22    23    1
    35    65    66    2
    36    65    67   am
    37    33    32   ar
    38    33    35   ar
    39    32    34   ar
    40    82    83    2
    41    82    84   am
    42    53    52    1
    43    44    47   ar
    44    44    46   ar
    45    23    24    1
    46    47    49   ar
    47    72    73    1
    48    35    36   ar
    49    45    46   ar
    50    34    36   ar
    51    13    12    2
    52    46    48   ar
    53    52    51    1
    54    52    55    1
    55    73    74    1
    56    49    50   ar
    57    24    25    1
    58    12    11    1
    59    55    56    1
    60    25    26    1
    61    48    50   ar
    62    74    75   ar
    63    74    76   ar
    64    93    91   am
    65    11    10    1
    66    11    14    1
    67    10     3   am
    68    56    57    1
    69     1     2    1
    70    90    91    1
    71    90    89    1
    72    85    86    1
    73   123   122   ar
    74   123   121   ar
    75     3     4    2
    76     3     2    1
    77    91    92    2
    78    57    58    2
    79    57    59   am
    80    14    15    1
    81   122   120   ar
    82     2     5    1
    83   109   108    1
    84    86    89    1
    85    86    87    1
    86   121   119   ar
    87    16    15    2
    88    15    17   am
    89   104   105    1
    90   120   117   ar
    91     5     6    1
    92    87    88    2
    93   108   105    1
    94   119   117   ar
    95   119   118   ar
    96   105   106    1
    97   117   115   ar
    98     6     7    1
    99   118   116   ar
   100   106   107    2
   101   103   101   ar
   102   103   102   ar
   103   115   116   ar
   104   115   114    1
   105   101    99   ar
   106     7     8   ar
   107     7     9   ar
   108   111   114    1
   109   111   110    1
   110   111   112    1
   111   102   100   ar
   112    94    95    1
   113    99   100   ar
   114    99    98    1
   115   112   113    2
   116   137   136   ar
   117   137   135   ar
   118   136   134   ar
   119    98    95    1
   120   135   133   ar
   121    95    96    1
   122   134   131   ar
   123   133   131   ar
   124   133   132   ar
   125   131   129   ar
   126   132   130   ar
   127    97    96    2
   128   129   130   ar
   129   129   128    1
   130   128   125    1
   131   125   124    1
   132   125   126    1
   133   126   127    2
