@<TRIPOS>MOLECULE
tmp/1ur2A01.pdb
 167 160 0 0 0
SMALL
GASTEIGER

@<TRIPOS>ATOM
      1  N         11.3140   42.6280   17.9500 N.3    18  ASN18      -0.1240
      2  CA        10.3540   43.7110   17.8660 C.3    18  ASN18       0.1653
      3  C         10.9980   44.9830   17.3190 C.2    18  ASN18       0.2266
      4  O         12.2090   45.0300   17.0880 O.2    18  ASN18      -0.2867
      5  CB         9.6910   43.9570   19.2240 C.3    18  ASN18       0.1155
      6  CG        10.6550   44.4430   20.2710 C.2    18  ASN18       0.2627
      7  OD1       11.5040   45.3190   20.0360 O.2    18  ASN18      -0.2716
      8  ND2       10.5060   43.8910   21.4800 N.am   18  ASN18      -0.0877
      9  N          8.9220   40.6800   14.4950 N.3    43  GLU43      -0.1231
     10  CA         7.8340   40.2470   15.3670 C.3    43  GLU43       0.1699
     11  C          6.4610   40.7420   14.9130 C.2    43  GLU43       0.2592
     12  O          5.4640   40.0250   15.0160 O.2    43  GLU43      -0.2718
     13  CB         8.0910   40.6580   16.8160 C.3    43  GLU43       0.0402
     14  CG         7.1770   39.8950   17.7720 C.3    43  GLU43       0.1161
     15  CD         7.5180   40.0970   19.2330 C.2    43  GLU43       0.3649
     16  OE1        8.5870   40.6310   19.5370 O.co2  43  GLU43      -0.2457
     17  OE2        6.7030   39.6890   20.0860 O.co2  43  GLU43      -0.2457
     18  N          6.4120   41.9670   14.3940 N.am   44  ASN44      -0.1974
     19  CA         5.1500   42.5890   13.9770 C.3    44  ASN44       0.1688
     20  C          5.2370   43.4500   12.7270 C.2    44  ASN44       0.2292
     21  O          4.2340   43.5690   12.0410 O.2    44  ASN44      -0.2864
     22  CB         4.5880   43.4750   15.0790 C.3    44  ASN44       0.1181
     23  CG         4.0520   42.6760   16.2500 C.2    44  ASN44       0.2629
     24  OD1        3.0630   41.9300   16.1080 O.2    44  ASN44      -0.2716
     25  ND2        4.6760   42.8460   17.4170 N.am   44  ASN44      -0.0877
     26  N          3.6460   42.6380    9.2150 N.3    47  LYS47      -0.1245
     27  CA         2.2430   42.2210    9.1550 C.3    47  LYS47       0.1561
     28  C          1.4240   43.2940    8.4470 C.2    47  LYS47       0.2260
     29  O          1.6550   44.5010    8.6330 O.2    47  LYS47      -0.2867
     30  CB         1.6970   41.9570   10.5580 C.3    47  LYS47       0.0271
     31  CG         2.3850   40.7640   11.2210 C.3    47  LYS47       0.0035
     32  CD         2.0660   40.6410   12.6940 C.3    47  LYS47       0.0206
     33  CE         2.8270   39.4730   13.3030 C.3    47  LYS47       0.1093
     34  NZ         2.6000   39.3610   14.7880 N.3    47  LYS47      -0.1314
     35  N         -0.0130   46.3080   10.2390 N.3    50  VAL50      -0.1245
     36  CA         0.9900   47.0700   10.9960 C.3    50  VAL50       0.1561
     37  C          1.8020   47.9350   10.0210 C.2    50  VAL50       0.2260
     38  O          2.0720   49.1110   10.2610 O.2    50  VAL50      -0.2867
     39  CB         1.9470   46.1090   11.7720 C.3    50  VAL50       0.0252
     40  CG1        3.0060   46.8720   12.5480 C.3    50  VAL50       0.0019
     41  CG2        1.1470   45.2020   12.7080 C.3    50  VAL50       0.0019
     42  N          7.7550   37.8110    7.7390 N.3    80  HIS80      -0.1241
     43  CA         6.6010   37.3090    8.4880 C.3    80  HIS80       0.1621
     44  C          5.5610   38.4160    8.4970 C.2    80  HIS80       0.2264
     45  O          5.8190   39.4810    9.0570 O.2    80  HIS80      -0.2867
     46  CB         7.0500   36.9960    9.9260 C.3    80  HIS80       0.0745
     47  CG         5.9380   36.5430   10.8310 C.ar   80  HIS80       0.0817
     48  ND1        5.3320   35.3160   10.6970 N.ar   80  HIS80      -0.2268
     49  CD2        5.3000   37.1680   11.8520 C.ar   80  HIS80       0.1154
     50  CE1        4.3660   35.2000   11.5950 C.ar   80  HIS80       0.1986
     51  NE2        4.3360   36.3040   12.3210 N.ar   80  HIS80      -0.2212
     52  N         -2.3210   36.3150    6.1730 N.3    84  TRP84      -0.1241
     53  CA        -2.7360   35.8440    7.4870 C.3    84  TRP84       0.1605
     54  C         -4.0320   36.5710    7.8560 C.2    84  TRP84       0.2264
     55  O         -4.2720   37.6910    7.4080 O.2    84  TRP84      -0.2867
     56  CB        -1.6460   36.1730    8.4980 C.3    84  TRP84       0.0550
     57  CG        -1.8130   35.6380    9.8700 C.ar   84  TRP84       0.0003
     58  CD1       -2.3840   34.4580   10.2490 C.ar   84  TRP84       0.0946
     59  CD2       -1.2970   36.2350   11.0750 C.ar   84  TRP84       0.0152
     60  NE1       -2.2800   34.2980   11.6130 N.ar   84  TRP84      -0.2442
     61  CE2       -1.6060   35.3670   12.1420 C.ar   84  TRP84       0.0810
     62  CE3       -0.6030   37.4320   11.3580 C.ar   84  TRP84       0.0012
     63  CZ2       -1.2510   35.6430   13.4700 C.ar   84  TRP84       0.0191
     64  CZ3       -0.2660   37.7110   12.6750 C.ar   84  TRP84       0.0001
     65  CH2       -0.5780   36.8070   13.7130 C.ar   84  TRP84       0.0015
     66  N         -4.1280   40.6570   12.6210 N.3    87  GLN87      -0.1245
     67  CA        -3.3790   41.8950   12.4440 C.3    87  GLN87       0.1566
     68  C         -3.4780   42.3890   11.0040 C.2    87  GLN87       0.2260
     69  O         -2.4730   42.6880   10.3460 O.2    87  GLN87      -0.2867
     70  CB        -1.9400   41.7290   12.9480 C.3    87  GLN87       0.0367
     71  CG        -1.9190   41.5960   14.4660 C.3    87  GLN87       0.0905
     72  CD        -0.5450   41.3550   14.9800 C.2    87  GLN87       0.2608
     73  OE1       -0.1590   40.2060   15.1240 O.2    87  GLN87      -0.2717
     74  NE2        0.2110   42.4290   15.2400 N.am   87  GLN87      -0.0878
     75  N          0.0580   31.9660    6.9740 N.3   132  ASN132     -0.1225
     76  CA         0.1100   31.6530    8.4260 C.3   132  ASN132      0.1785
     77  C         -1.2850   31.1700    8.8520 C.2   132  ASN132      0.2597
     78  O         -2.2920   31.8050    8.5450 O.2   132  ASN132     -0.2718
     79  CB         0.5300   32.9260    9.1970 C.3   132  ASN132      0.1169
     80  CG         1.2290   32.6620   10.5480 C.2   132  ASN132      0.2627
     81  OD1        1.9890   31.7190   10.7030 O.2   132  ASN132     -0.2716
     82  ND2        0.9880   33.5480   11.5290 N.am  132  ASN132     -0.0877
     83  N         -1.3380   30.0370    9.5390 N.am  133  GLU133     -0.1979
     84  CA        -2.5140   29.6670   10.3370 C.3   133  GLU133      0.1602
     85  C         -3.8010   29.5030    9.5430 C.2   133  GLU133      0.2287
     86  O         -4.8400   30.0780    9.8840 O.2   133  GLU133     -0.2864
     87  CB        -2.6990   30.6570   11.4900 C.3   133  GLU133      0.0415
     88  CG        -1.4710   30.7440   12.3890 C.3   133  GLU133      0.1163
     89  CD        -1.6100   31.7120   13.5420 C.2   133  GLU133      0.3649
     90  OE1       -2.7020   32.3230   13.7110 O.co2 133  GLU133     -0.2457
     91  OE2       -0.6180   31.8510   14.2890 O.co2 133  GLU133     -0.2457
     92  N          3.2050   28.2160    7.7630 N.3   174  ASN174     -0.1240
     93  CA         3.4960   28.3050    9.1960 C.3   174  ASN174      0.1653
     94  C          2.2060   28.1430    9.9960 C.2   174  ASN174      0.2266
     95  O          1.1670   28.7070    9.6210 O.2   174  ASN174     -0.2867
     96  CB         4.1350   29.6820    9.4860 C.3   174  ASN174      0.1155
     97  CG         4.7390   29.8200   10.8930 C.2   174  ASN174      0.2627
     98  OD1        5.5490   29.0110   11.3070 O.2   174  ASN174     -0.2716
     99  ND2        4.4250   30.9510   11.5820 N.am  174  ASN174     -0.0877
    100  N          5.2280   26.2850   14.7190 N.3   207  GLN207     -0.1245
    101  CA         5.4630   27.4530   15.5590 C.3   207  GLN207      0.1566
    102  C          6.1870   27.1050   16.8640 C.2   207  GLN207      0.2260
    103  O          7.1160   27.8140   17.2720 O.2   207  GLN207     -0.2867
    104  CB         4.1720   28.2350   15.8280 C.3   207  GLN207      0.0367
    105  CG         3.7240   29.0230   14.6180 C.3   207  GLN207      0.0905
    106  CD         2.5330   29.9290   14.8900 C.2   207  GLN207      0.2608
    107  OE1        2.2440   30.2580   16.0370 O.2   207  GLN207     -0.2717
    108  NE2        1.8370   30.3270   13.8220 N.am  207  GLN207     -0.0878
    109  N          4.8530   26.9720   19.9900 N.3   209  HIS209     -0.1241
    110  CA         4.3790   27.6290   21.2110 C.3   209  HIS209      0.1621
    111  C          3.9940   26.5260   22.1690 C.2   209  HIS209      0.2264
    112  O          2.8750   26.0090   22.1110 O.2   209  HIS209     -0.2867
    113  CB         3.1980   28.5430   20.9240 C.3   209  HIS209      0.0745
    114  CG         3.5820   29.7930   20.2040 C.ar  209  HIS209      0.0817
    115  ND1        4.5310   30.6620   20.6890 N.ar  209  HIS209     -0.2268
    116  CD2        3.1510   30.3170   19.0310 C.ar  209  HIS209      0.1154
    117  CE1        4.6710   31.6680   19.8400 C.ar  209  HIS209      0.1986
    118  NE2        3.8380   31.4870   18.8330 N.ar  209  HIS209     -0.2212
    119  N          8.6560   29.8320   16.2320 N.3   238  SER238     -0.1217
    120  CA         8.1140   30.7700   17.2440 C.3   238  SER238      0.1889
    121  C          8.2150   30.1600   18.6380 C.2   238  SER238      0.2288
    122  O          7.2810   30.2220   19.4210 O.2   238  SER238     -0.2866
    123  CB         6.6560   31.1050   16.9170 C.3   238  SER238      0.2089
    124  OG         6.4370   31.2390   15.5170 O.3   238  SER238     -0.2183
    125  N         10.5780   32.9540   19.8710 N.3   304  TRP304     -0.1241
    126  CA         9.6770   34.1010   19.6550 C.3   304  TRP304      0.1605
    127  C          9.9980   35.2170   20.6540 C.2   304  TRP304      0.2264
    128  O          9.1890   35.5980   21.5180 O.2   304  TRP304     -0.2867
    129  CB         8.2050   33.6790   19.6640 C.3   304  TRP304      0.0550
    130  CG         7.4030   34.6360   18.8850 C.ar  304  TRP304      0.0003
    131  CD1        6.4600   35.4870   19.3570 C.ar  304  TRP304      0.0946
    132  CD2        7.5280   34.9080   17.4780 C.ar  304  TRP304      0.0152
    133  NE1        5.9840   36.2810   18.3370 N.ar  304  TRP304     -0.2442
    134  CE2        6.6090   35.9380   17.1660 C.ar  304  TRP304      0.0810
    135  CE3        8.3150   34.3770   16.4480 C.ar  304  TRP304      0.0012
    136  CZ2        6.4760   36.4600   15.8720 C.ar  304  TRP304      0.0191
    137  CZ3        8.1660   34.8840   15.1540 C.ar  304  TRP304      0.0001
    138  CH2        7.2620   35.9270   14.8910 C.ar  304  TRP304      0.0015
    139  N         10.3880   40.8430   26.9050 N.3   310  ALA310     -0.1231
    140  CA         9.7810   41.1670   25.6100 C.3   310  ALA310      0.1694
    141  C          8.7770   40.1130   25.1070 C.2   310  ALA310      0.2593
    142  O          8.1320   40.2850   24.0520 O.2   310  ALA310     -0.2718
    143  CB        10.8900   41.4100   24.5700 C.3   310  ALA310      0.0304
    144  N          8.5750   39.0400   25.8570 N.am  311  SER311     -0.1938
    145  CA         7.7360   37.9720   25.3730 C.3   311  SER311      0.2055
    146  C          6.2520   38.3170   25.2600 C.2   311  SER311      0.2643
    147  O          5.6380   38.8480   26.1970 O.2   311  SER311     -0.2714
    148  CB         7.8560   36.7530   26.2860 C.3   311  SER311      0.2130
    149  OG         7.0100   35.7300   25.8170 O.3   311  SER311     -0.2179
    150  N          5.6540   37.9290   24.1360 N.am  312  TRP312     -0.1973
    151  CA         4.2150   38.1040   23.9650 C.3   312  TRP312      0.1640
    152  C          3.3860   37.3240   24.9890 C.2   312  TRP312      0.2290
    153  O          2.2030   37.6390   25.2090 O.2   312  TRP312     -0.2864
    154  CB         3.7960   37.7310   22.5390 C.3   312  TRP312      0.0576
    155  CG         3.6960   36.2700   22.3110 C.ar  312  TRP312      0.0006
    156  CD1        4.6790   35.3430   22.4890 C.ar  312  TRP312      0.0946
    157  CD2        2.5560   35.5690   21.8360 C.ar  312  TRP312      0.0152
    158  NE1        4.2070   34.0990   22.1700 N.ar  312  TRP312     -0.2442
    159  CE2        2.9070   34.2010   21.7500 C.ar  312  TRP312      0.0810
    160  CE3        1.2640   35.9530   21.4540 C.ar  312  TRP312      0.0012
    161  CZ2        2.0150   33.2210   21.3260 C.ar  312  TRP312      0.0191
    162  CZ3        0.3840   34.9790   21.0230 C.ar  312  TRP312      0.0001
    163  CH2        0.7550   33.6290   20.9610 C.ar  312  TRP312      0.0015
    164  N          1.5890   39.0400   27.9030 N.3   315  GLY315     -0.1225
    165  CA         0.2610   39.6300   27.6570 C.3   315  GLY315      0.1811
    166  C         -0.7970   38.7560   27.0060 C.2   315  GLY315      0.2280
    167  O         -1.9360   39.2140   26.7850 O.2   315  GLY315     -0.2866
@<TRIPOS>BOND
     1    52    53    1
     2    75    76    1
     3    55    54    2
     4    53    54    1
     5    53    56    1
     6    42    43    1
     7    92    93    1
     8    76    77    1
     9    76    79    1
    10    28    29    2
    11    28    27    1
    12    43    44    1
    13    43    46    1
    14    44    45    2
    15    56    57    1
    16    78    77    2
    17    77    83   am
    18    27    26    1
    19    27    30    1
    20    93    96    1
    21    93    94    1
    22    79    80    1
    23    96    97    1
    24    83    84    1
    25    85    86    2
    26    85    84    1
    27    95    94    2
    28    57    58   ar
    29    57    59   ar
    30    46    47    1
    31    37    38    2
    32    37    36    1
    33    35    36    1
    34    58    60   ar
    35    84    87    1
    36    69    68    2
    37    80    81    2
    38    80    82   am
    39    30    31    1
    40    48    47   ar
    41    48    50   ar
    42    47    49   ar
    43    97    98    2
    44    97    99   am
    45    36    39    1
    46    68    67    1
    47    59    62   ar
    48    59    61   ar
    49    31    32    1
    50    62    64   ar
    51    87    88    1
    52    50    51   ar
    53    60    61   ar
    54    39    40    1
    55    39    41    1
    56    49    51   ar
    57    21    20    2
    58    61    63   ar
    59    88    89    1
    60    67    66    1
    61    67    70    1
    62    64    65   ar
    63    32    33    1
    64    20    19    1
    65    70    71    1
    66    33    34    1
    67    63    65   ar
    68    89    90   ar
    69    89    91   ar
    70   108   106   am
    71    19    18    1
    72    19    22    1
    73    18    11   am
    74    71    72    1
    75     9    10    1
    76   105   106    1
    77   105   104    1
    78   100   101    1
    79   106   107    2
    80   138   137   ar
    81   138   136   ar
    82    11    12    2
    83    11    10    1
    84    72    73    2
    85    72    74   am
    86    22    23    1
    87   137   135   ar
    88    10    13    1
    89   124   123    1
    90   101   104    1
    91   101   102    1
    92   136   134   ar
    93    24    23    2
    94   119   120    1
    95    23    25   am
    96   135   132   ar
    97    13    14    1
    98   102   103    2
    99   123   120    1
   100     4     3    2
   101   134   132   ar
   102   134   133   ar
   103   120   121    1
   104     3     2    1
   105   132   130   ar
   106    14    15    1
   107     2     1    1
   108     2     5    1
   109   133   131   ar
   110   121   122    2
   111   118   116   ar
   112   118   117   ar
   113   130   131   ar
   114   130   129    1
   115   116   114   ar
   116     5     6    1
   117    15    16   ar
   118    15    17   ar
   119   126   129    1
   120   126   125    1
   121   126   127    1
   122   117   115   ar
   123   109   110    1
   124     7     6    2
   125   114   115   ar
   126   114   113    1
   127     6     8   am
   128   127   128    2
   129   113   110    1
   130   163   162   ar
   131   163   161   ar
   132   162   160   ar
   133   110   111    1
   134   161   159   ar
   135   160   157   ar
   136   159   157   ar
   137   159   158   ar
   138   157   155   ar
   139   112   111    2
   140   158   156   ar
   141   155   156   ar
   142   155   154    1
   143   154   151    1
   144   151   150    1
   145   151   152    1
   146   142   141    2
   147   150   146   am
   148   143   140    1
   149   152   153    2
   150   141   140    1
   151   141   144   am
   152   146   145    1
   153   146   147    2
   154   145   144    1
   155   145   148    1
   156   140   139    1
   157   149   148    1
   158   167   166    2
   159   166   165    1
   160   165   164    1
