@<TRIPOS>MOLECULE
tmp/1ur2A00.pdb
 164 160 0 0 0
SMALL
GASTEIGER

@<TRIPOS>ATOM
      1  N         -2.3210   36.3150    6.1730 N.3    84  TRP84      -0.1241
      2  CA        -2.7360   35.8440    7.4870 C.3    84  TRP84       0.1605
      3  C         -4.0320   36.5710    7.8560 C.2    84  TRP84       0.2264
      4  O         -4.2720   37.6910    7.4080 O.2    84  TRP84      -0.2867
      5  CB        -1.6460   36.1730    8.4980 C.3    84  TRP84       0.0550
      6  CG        -1.8130   35.6380    9.8700 C.ar   84  TRP84       0.0003
      7  CD1       -2.3840   34.4580   10.2490 C.ar   84  TRP84       0.0946
      8  CD2       -1.2970   36.2350   11.0750 C.ar   84  TRP84       0.0152
      9  NE1       -2.2800   34.2980   11.6130 N.ar   84  TRP84      -0.2442
     10  CE2       -1.6060   35.3670   12.1420 C.ar   84  TRP84       0.0810
     11  CE3       -0.6030   37.4320   11.3580 C.ar   84  TRP84       0.0012
     12  CZ2       -1.2510   35.6430   13.4700 C.ar   84  TRP84       0.0191
     13  CZ3       -0.2660   37.7110   12.6750 C.ar   84  TRP84       0.0001
     14  CH2       -0.5780   36.8070   13.7130 C.ar   84  TRP84       0.0015
     15  N         -4.9630   37.5510   10.9320 N.3    86  SER86      -0.1217
     16  CA        -4.8060   38.3790   12.1280 C.3    86  SER86       0.1889
     17  C         -3.9570   39.6100   11.8200 C.2    86  SER86       0.2288
     18  O         -3.1770   39.6130   10.8750 O.2    86  SER86      -0.2866
     19  CB        -4.1670   37.5570   13.2520 C.3    86  SER86       0.2089
     20  OG        -4.2330   38.2200   14.5010 O.3    86  SER86      -0.2183
     21  N         -1.3380   30.0370    9.5390 N.3   133  GLU133     -0.1245
     22  CA        -2.5140   29.6670   10.3370 C.3   133  GLU133      0.1567
     23  C         -3.8010   29.5030    9.5430 C.2   133  GLU133      0.2260
     24  O         -4.8400   30.0780    9.8840 O.2   133  GLU133     -0.2867
     25  CB        -2.6990   30.6570   11.4900 C.3   133  GLU133      0.0388
     26  CG        -1.4710   30.7440   12.3890 C.3   133  GLU133      0.1160
     27  CD        -1.6100   31.7120   13.5420 C.2   133  GLU133      0.3649
     28  OE1       -2.7020   32.3230   13.7110 O.co2 133  GLU133     -0.2457
     29  OE2       -0.6180   31.8510   14.2890 O.co2 133  GLU133     -0.2457
     30  N         -8.8440   25.5820   14.5110 N.3   137  ASP137     -0.1239
     31  CA        -8.7070   24.7660   15.7200 C.3   137  ASP137      0.1674
     32  C         -9.6000   23.5140   15.6160 C.2   137  ASP137      0.2266
     33  O         -9.2690   22.4810   16.1830 O.2   137  ASP137     -0.2867
     34  CB        -9.0680   25.5550   16.9910 C.3   137  ASP137      0.1410
     35  CG        -8.2280   26.8210   17.1990 C.2   137  ASP137      0.3668
     36  OD1       -6.9940   26.7870   17.0400 O.co2 137  ASP137     -0.2456
     37  OD2       -8.7420   27.9040   17.5810 O.co2 137  ASP137     -0.2456
     38  N          0.4860   26.9400   14.2710 N.3   176  TYR176     -0.1227
     39  CA         0.5880   26.4830   15.6660 C.3   176  TYR176      0.1736
     40  C         -0.2630   25.2330   15.9090 C.2   176  TYR176      0.2595
     41  O         -1.2360   24.9760   15.2160 O.2   176  TYR176     -0.2718
     42  CB         0.1500   27.6000   16.6510 C.3   176  TYR176      0.0548
     43  CG        -1.3330   27.9540   16.6000 C.ar  176  TYR176     -0.0200
     44  CD1       -1.8130   28.9180   15.7230 C.ar  176  TYR176     -0.0009
     45  CD2       -2.2500   27.3000   17.4180 C.ar  176  TYR176     -0.0009
     46  CE1       -3.1550   29.2360   15.6830 C.ar  176  TYR176      0.0417
     47  CE2       -3.5980   27.5870   17.3600 C.ar  176  TYR176      0.0417
     48  CZ        -4.0470   28.5630   16.4920 C.ar  176  TYR176      0.1957
     49  OH        -5.3960   28.8470   16.4300 O.3   176  TYR176     -0.2866
     50  N          0.1230   24.4520   16.9090 N.am  177  ASN177     -0.1974
     51  CA        -0.5900   23.2200   17.3030 C.3   177  ASN177      0.1688
     52  C         -0.5240   22.1110   16.2520 C.2   177  ASN177      0.2292
     53  O         -1.1690   21.0740   16.3950 O.2   177  ASN177     -0.2864
     54  CB        -2.0500   23.4890   17.6990 C.3   177  ASN177      0.1181
     55  CG        -2.1990   24.0500   19.1010 C.2   177  ASN177      0.2629
     56  OD1       -1.2630   24.0370   19.9030 O.2   177  ASN177     -0.2716
     57  ND2       -3.4180   24.5430   19.4100 N.am  177  ASN177     -0.0877
     58  N          0.4740   18.5600   17.1780 N.3   180  ARG180     -0.1245
     59  CA        -0.5190   17.6530   17.7900 C.3   180  ARG180      0.1563
     60  C         -1.2710   16.8010   16.7950 C.2   180  ARG180      0.2260
     61  O         -1.5870   17.2390   15.6930 O.2   180  ARG180     -0.2867
     62  CB        -1.5450   18.4640   18.5810 C.3   180  ARG180      0.0307
     63  CG        -0.9400   19.2590   19.7090 C.3   180  ARG180      0.0489
     64  CD        -1.8810   20.2660   20.3100 C.3   180  ARG180      0.2205
     65  NE        -1.2870   20.9040   21.4790 N.pl3 180  ARG180     -0.0865
     66  CZ        -1.2230   20.3380   22.6900 C.cat 180  ARG180      0.5346
     67  NH1       -1.7240   19.1210   22.9140 N.pl3 180  ARG180      0.1354
     68  NH2       -0.6640   20.9940   23.6970 N.pl3 180  ARG180      0.1354
     69  N          5.2280   26.2850   14.7190 N.3   207  GLN207     -0.1245
     70  CA         5.4630   27.4530   15.5590 C.3   207  GLN207      0.1566
     71  C          6.1870   27.1050   16.8640 C.2   207  GLN207      0.2260
     72  O          7.1160   27.8140   17.2720 O.2   207  GLN207     -0.2867
     73  CB         4.1720   28.2350   15.8280 C.3   207  GLN207      0.0367
     74  CG         3.7240   29.0230   14.6180 C.3   207  GLN207      0.0905
     75  CD         2.5330   29.9290   14.8900 C.2   207  GLN207      0.2608
     76  OE1        2.2440   30.2580   16.0370 O.2   207  GLN207     -0.2717
     77  NE2        1.8370   30.3270   13.8220 N.am  207  GLN207     -0.0878
     78  N          4.8530   26.9720   19.9900 N.3   209  HIS209     -0.1226
     79  CA         4.3790   27.6290   21.2110 C.3   209  HIS209      0.1752
     80  C          3.9940   26.5260   22.1690 C.2   209  HIS209      0.2595
     81  O          2.8750   26.0090   22.1110 O.2   209  HIS209     -0.2718
     82  CB         3.1980   28.5430   20.9240 C.3   209  HIS209      0.0759
     83  CG         3.5820   29.7930   20.2040 C.ar  209  HIS209      0.0818
     84  ND1        4.5310   30.6620   20.6890 N.ar  209  HIS209     -0.2268
     85  CD2        3.1510   30.3170   19.0310 C.ar  209  HIS209      0.1154
     86  CE1        4.6710   31.6680   19.8400 C.ar  209  HIS209      0.1986
     87  NE2        3.8380   31.4870   18.8330 N.ar  209  HIS209     -0.2212
     88  N          4.9350   26.1580   23.0200 N.am  210  LEU210     -0.1980
     89  CA         4.7950   24.9880   23.8940 C.3   210  LEU210      0.1596
     90  C          4.3860   25.3730   25.3050 C.2   210  LEU210      0.2287
     91  O          4.6450   26.4790   25.7500 O.2   210  LEU210     -0.2864
     92  CB         6.1320   24.2470   23.9840 C.3   210  LEU210      0.0297
     93  CG         6.7940   23.8380   22.6730 C.3   210  LEU210      0.0022
     94  CD1        8.1450   23.1590   22.9470 C.3   210  LEU210      0.0001
     95  CD2        5.8810   22.9820   21.8350 C.3   210  LEU210      0.0001
     96  N          2.9720   20.1540   28.1210 N.3   214  THR214     -0.1218
     97  CA         2.3720   19.6680   26.8720 C.3   214  THR214      0.1862
     98  C          2.7660   20.5860   25.7190 C.2   214  THR214      0.2287
     99  O          2.9580   21.7820   25.9370 O.2   214  THR214     -0.2866
    100  CB         0.8310   19.6700   26.9680 C.3   214  THR214      0.1770
    101  OG1        0.3690   20.9870   27.3010 O.3   214  THR214     -0.2211
    102  CG2        0.3560   18.8110   28.1260 C.3   214  THR214      0.0375
    103  N         -2.4020   27.4470   33.1020 N.3   246  SER246     -0.1217
    104  CA        -3.0820   27.3970   31.8180 C.3   246  SER246      0.1889
    105  C         -4.5740   27.6640   31.9120 C.2   246  SER246      0.2288
    106  O         -5.2490   27.2110   32.8440 O.2   246  SER246     -0.2866
    107  CB        -2.8870   26.0200   31.1960 C.3   246  SER246      0.2089
    108  OG        -3.6280   25.9030   29.9850 O.3   246  SER246     -0.2183
    109  N         -6.3080   26.9470   29.0020 N.3   248  TRP248     -0.1227
    110  CA        -6.7230   26.2680   27.7770 C.3   248  TRP248      0.1737
    111  C         -7.6300   25.0590   27.9930 C.2   248  TRP248      0.2595
    112  O         -8.1680   24.5330   27.0230 O.2   248  TRP248     -0.2718
    113  CB        -5.4940   25.8300   26.9680 C.3   248  TRP248      0.0564
    114  CG        -4.5840   26.9630   26.5770 C.ar  248  TRP248      0.0003
    115  CD1       -3.2650   27.0990   26.9040 C.ar  248  TRP248      0.0946
    116  CD2       -4.9200   28.1280   25.7990 C.ar  248  TRP248      0.0152
    117  NE1       -2.7610   28.2630   26.3780 N.ar  248  TRP248     -0.2442
    118  CE2       -3.7530   28.9120   25.6960 C.ar  248  TRP248      0.0810
    119  CE3       -6.0870   28.5880   25.1770 C.ar  248  TRP248      0.0012
    120  CZ2       -3.7100   30.1080   24.9940 C.ar  248  TRP248      0.0191
    121  CZ3       -6.0370   29.7830   24.4820 C.ar  248  TRP248      0.0001
    122  CH2       -4.8590   30.5310   24.4050 C.ar  248  TRP248      0.0015
    123  N         -7.7960   24.6040   29.2340 N.am  249  GLU249     -0.1979
    124  CA        -8.5510   23.3730   29.5280 C.3   249  GLU249      0.1602
    125  C         -9.4710   23.5460   30.7370 C.2   249  GLU249      0.2287
    126  O         -9.6100   22.6340   31.5620 O.2   249  GLU249     -0.2864
    127  CB        -7.5920   22.2040   29.7840 C.3   249  GLU249      0.0415
    128  CG        -6.5640   21.9670   28.6840 C.3   249  GLU249      0.1163
    129  CD        -7.1910   21.4790   27.3970 C.2   249  GLU249      0.3649
    130  OE1       -7.9730   20.5070   27.4630 O.co2 249  GLU249     -0.2457
    131  OE2       -6.9030   22.0570   26.3180 O.co2 249  GLU249     -0.2457
    132  N          5.6540   37.9290   24.1360 N.3   312  TRP312     -0.1227
    133  CA         4.2150   38.1040   23.9650 C.3   312  TRP312      0.1737
    134  C          3.3860   37.3240   24.9890 C.2   312  TRP312      0.2595
    135  O          2.2030   37.6390   25.2090 O.2   312  TRP312     -0.2718
    136  CB         3.7960   37.7310   22.5390 C.3   312  TRP312      0.0564
    137  CG         3.6960   36.2700   22.3110 C.ar  312  TRP312      0.0003
    138  CD1        4.6790   35.3430   22.4890 C.ar  312  TRP312      0.0946
    139  CD2        2.5560   35.5690   21.8360 C.ar  312  TRP312      0.0152
    140  NE1        4.2070   34.0990   22.1700 N.ar  312  TRP312     -0.2442
    141  CE2        2.9070   34.2010   21.7500 C.ar  312  TRP312      0.0810
    142  CE3        1.2640   35.9530   21.4540 C.ar  312  TRP312      0.0012
    143  CZ2        2.0150   33.2210   21.3260 C.ar  312  TRP312      0.0191
    144  CZ3        0.3840   34.9790   21.0230 C.ar  312  TRP312      0.0001
    145  CH2        0.7550   33.6290   20.9610 C.ar  312  TRP312      0.0015
    146  N          3.9890   36.3310   25.6490 N.am  313  LEU313     -0.1980
    147  CA         3.2410   35.5390   26.6220 C.3   313  LEU313      0.1596
    148  C          3.0350   36.2560   27.9500 C.2   313  LEU313      0.2287
    149  O          2.2860   35.7680   28.8020 O.2   313  LEU313     -0.2864
    150  CB         3.8900   34.1860   26.8660 C.3   313  LEU313      0.0297
    151  CG         3.9890   33.2860   25.6370 C.3   313  LEU313      0.0022
    152  CD1        4.6700   32.0270   26.0620 C.3   313  LEU313      0.0001
    153  CD2        2.6450   32.9900   25.0300 C.3   313  LEU313      0.0001
    154  N         -0.4200   37.5290   26.6480 N.3   316  PHE316     -0.1241
    155  CA        -1.2870   36.5630   26.0020 C.3   316  PHE316      0.1605
    156  C         -1.1240   35.1960   26.6490 C.2   316  PHE316      0.2264
    157  O          0.0020   34.7500   26.8180 O.2   316  PHE316     -0.2867
    158  CB        -0.9600   36.4090   24.5130 C.3   316  PHE316      0.0534
    159  CG        -1.8500   35.4230   23.8150 C.ar  316  PHE316     -0.0203
    160  CD1       -3.0630   35.8350   23.3000 C.ar  316  PHE316     -0.0042
    161  CD2       -1.4950   34.0840   23.7210 C.ar  316  PHE316     -0.0042
    162  CE1       -3.9120   34.9290   22.6740 C.ar  316  PHE316     -0.0003
    163  CE2       -2.3510   33.1590   23.0980 C.ar  316  PHE316     -0.0003
    164  CZ        -3.5450   33.5970   22.5720 C.ar  316  PHE316     -0.0000
@<TRIPOS>BOND
     1     1     2    1
     2     4     3    2
     3     2     3    1
     4     2     5    1
     5     5     6    1
     6    21    22    1
     7    23    24    2
     8    23    22    1
     9     6     7   ar
    10     6     8   ar
    11     7     9   ar
    12    22    25    1
    13    18    17    2
    14    15    16    1
    15     8    11   ar
    16     8    10   ar
    17    11    13   ar
    18    25    26    1
    19     9    10   ar
    20    17    16    1
    21    16    19    1
    22    10    12   ar
    23    26    27    1
    24    13    14   ar
    25    19    20    1
    26    12    14   ar
    27    27    28   ar
    28    27    29   ar
    29    77    75   am
    30    38    39    1
    31    30    31    1
    32    74    75    1
    33    74    73    1
    34    69    70    1
    35    75    76    2
    36    41    40    2
    37    70    73    1
    38    70    71    1
    39    32    31    1
    40    32    33    2
    41    39    40    1
    42    39    42    1
    43    46    44   ar
    44    46    48   ar
    45    61    60    2
    46    31    34    1
    47    44    43   ar
    48    40    50   am
    49    52    53    2
    50    52    51    1
    51    49    48    1
    52    48    47   ar
    53    43    42    1
    54    43    45   ar
    55    60    59    1
    56    71    72    2
    57    50    51    1
    58    34    35    1
    59    36    35   ar
    60    58    59    1
    61    35    37   ar
    62    51    54    1
    63    47    45   ar
    64    54    55    1
    65    59    62    1
    66    62    63    1
    67    87    85   ar
    68    87    86   ar
    69    85    83   ar
    70    55    57   am
    71    55    56    2
    72    63    64    1
    73    86    84   ar
    74    78    79    1
    75    83    84   ar
    76    83    82    1
    77    64    65    1
    78    82    79    1
    79   145   144   ar
    80   145   143   ar
    81   144   142   ar
    82    79    80    1
    83   143   141   ar
    84   142   139   ar
    85    65    66    2
    86   141   139   ar
    87   141   140   ar
    88    95    93    1
    89   139   137   ar
    90    81    80    2
    91    80    88   am
    92   140   138   ar
    93   137   138   ar
    94   137   136    1
    95   136   133    1
    96   164   162   ar
    97   164   163   ar
    98    93    94    1
    99    93    92    1
   100   162   160   ar
   101    66    67    1
   102    66    68    1
   103    88    89    1
   104   163   161   ar
   105   160   159   ar
   106   161   159   ar
   107   159   158    1
   108    89    92    1
   109    89    90    1
   110   133   132    1
   111   133   134    1
   112   122   121   ar
   113   122   120   ar
   114   121   119   ar
   115   158   155    1
   116   134   135    2
   117   134   146   am
   118   120   118   ar
   119   153   151    1
   120   119   116   ar
   121    90    91    2
   122   151   152    1
   123   151   150    1
   124   146   147    1
   125   118   116   ar
   126   118   117   ar
   127    98    99    2
   128    98    97    1
   129   116   114   ar
   130   155   154    1
   131   155   156    1
   132   131   129   ar
   133   117   115   ar
   134   114   115   ar
   135   114   113    1
   136   147   150    1
   137   147   148    1
   138   156   157    2
   139    97   100    1
   140    97    96    1
   141   113   110    1
   142   100   101    1
   143   100   102    1
   144   112   111    2
   145   129   130   ar
   146   129   128    1
   147   110   111    1
   148   110   109    1
   149   148   149    2
   150   111   123   am
   151   128   127    1
   152   123   124    1
   153   124   127    1
   154   124   125    1
   155   108   107    1
   156   125   126    2
   157   107   104    1
   158   104   105    1
   159   104   103    1
   160   105   106    2
