@<TRIPOS>MOLECULE
tmp/1ur4B02.pdb
 172 170 0 0 0
SMALL
GASTEIGER

@<TRIPOS>ATOM
      1  N         39.9200   38.1600   20.6570 N.3   105  TRP105     -0.1227
      2  CA        39.5590   39.4310   20.0350 C.3   105  TRP105      0.1737
      3  C         40.3520   39.8220   18.7980 C.2   105  TRP105      0.2595
      4  O         41.5830   39.8490   18.8020 O.2   105  TRP105     -0.2718
      5  CB        39.6430   40.5770   21.0450 C.3   105  TRP105      0.0564
      6  CG        38.7830   40.4010   22.2660 C.ar  105  TRP105      0.0003
      7  CD1       39.1930   39.9930   23.5000 C.ar  105  TRP105      0.0946
      8  CD2       37.3750   40.6500   22.3730 C.ar  105  TRP105      0.0152
      9  NE1       38.1300   39.9740   24.3750 N.ar  105  TRP105     -0.2442
     10  CE2       37.0020   40.3720   23.7090 C.ar  105  TRP105      0.0810
     11  CE3       36.3930   41.0810   21.4730 C.ar  105  TRP105      0.0012
     12  CZ2       35.6890   40.5130   24.1650 C.ar  105  TRP105      0.0191
     13  CZ3       35.0850   41.2250   21.9280 C.ar  105  TRP105      0.0001
     14  CH2       34.7460   40.9400   23.2650 C.ar  105  TRP105      0.0015
     15  N         39.6210   40.1270   17.7320 N.am  106  ALA106     -0.1966
     16  CA        40.2160   40.5540   16.4720 C.3   106  ALA106      0.1728
     17  C         39.7400   41.9780   16.2190 C.2   106  ALA106      0.2616
     18  O         38.5370   42.2330   16.1860 O.2   106  ALA106     -0.2715
     19  CB        39.7610   39.6440   15.3410 C.3   106  ALA106      0.0334
     20  N         40.6750   42.9100   16.0700 N.am  107  ASP107     -0.1971
     21  CA        40.3120   44.2940   15.8110 C.3   107  ASP107      0.1709
     22  C         41.4300   45.0010   15.0350 C.2   107  ASP107      0.2293
     23  O         42.3260   44.3420   14.5010 O.2   107  ASP107     -0.2864
     24  CB        39.9700   45.0220   17.1290 C.3   107  ASP107      0.1436
     25  CG        41.1280   45.0650   18.1160 C.2   107  ASP107      0.3671
     26  OD1       42.2980   45.0840   17.6840 O.co2 107  ASP107     -0.2456
     27  OD2       40.8510   45.1060   19.3370 O.co2 107  ASP107     -0.2456
     28  N         44.6210   43.8210   16.7810 N.3   110  LYS110     -0.1245
     29  CA        44.7840   42.3840   16.9760 C.3   110  LYS110      0.1561
     30  C         44.1170   41.5050   15.9240 C.2   110  LYS110      0.2260
     31  O         42.8970   41.4970   15.7870 O.2   110  LYS110     -0.2867
     32  CB        44.2730   41.9920   18.3680 C.3   110  LYS110      0.0271
     33  CG        45.0020   42.6990   19.5160 C.3   110  LYS110      0.0035
     34  CD        44.3490   42.4390   20.8780 C.3   110  LYS110      0.0206
     35  CE        42.9850   43.1160   20.9840 C.3   110  LYS110      0.1093
     36  NZ        42.3840   42.9190   22.3320 N.3   110  LYS110     -0.1314
     37  N         36.5880   43.5410   11.7980 N.3   155  GLU155     -0.1245
     38  CA        37.3850   44.7740   11.7860 C.3   155  GLU155      0.1567
     39  C         38.8150   44.5230   11.2840 C.2   155  GLU155      0.2260
     40  O         39.8070   44.8850   11.9370 O.2   155  GLU155     -0.2867
     41  CB        37.4290   45.4090   13.1780 C.3   155  GLU155      0.0388
     42  CG        36.0680   45.8420   13.7000 C.3   155  GLU155      0.1160
     43  CD        36.1630   46.6860   14.9580 C.2   155  GLU155      0.3649
     44  OE1       37.2220   46.6470   15.6230 O.co2 155  GLU155     -0.2457
     45  OE2       35.1760   47.3810   15.2840 O.co2 155  GLU155     -0.2457
     46  N         30.9520   53.7010   16.3990 N.3   224  TYR224     -0.1241
     47  CA        30.8590   54.1030   17.7880 C.3   224  TYR224      0.1605
     48  C         31.0280   55.6230   17.7490 C.2   224  TYR224      0.2264
     49  O         32.1280   56.1300   17.5320 O.2   224  TYR224     -0.2867
     50  CB        31.9660   53.4110   18.5810 C.3   224  TYR224      0.0534
     51  CG        31.7230   51.9220   18.7500 C.ar  224  TYR224     -0.0201
     52  CD1       30.7920   51.4480   19.6750 C.ar  224  TYR224     -0.0009
     53  CD2       32.3920   50.9870   17.9660 C.ar  224  TYR224     -0.0009
     54  CE1       30.5300   50.0730   19.8140 C.ar  224  TYR224      0.0417
     55  CE2       32.1340   49.6070   18.0940 C.ar  224  TYR224      0.0417
     56  CZ        31.2020   49.1630   19.0200 C.ar  224  TYR224      0.1957
     57  OH        30.9270   47.8190   19.1430 O.3   224  TYR224     -0.2866
     58  N         28.3370   47.0290   14.1320 N.3   253  GLU253     -0.1245
     59  CA        28.4790   47.2890   15.5590 C.3   253  GLU253      0.1567
     60  C         28.2400   48.7510   15.8930 C.2   253  GLU253      0.2260
     61  O         28.7560   49.6460   15.2210 O.2   253  GLU253     -0.2867
     62  CB        29.8890   46.9340   16.0330 C.3   253  GLU253      0.0388
     63  CG        30.1750   45.4590   16.2060 C.3   253  GLU253      0.1160
     64  CD        31.5200   45.2220   16.8580 C.2   253  GLU253      0.3649
     65  OE1       31.9410   46.0880   17.6590 O.co2 253  GLU253     -0.2457
     66  OE2       32.1460   44.1740   16.5850 O.co2 253  GLU253     -0.2457
     67  N         34.6270   47.0910   36.9400 N.3   266  HIS266     -0.1226
     68  CA        35.6780   47.0850   35.9340 C.3   266  HIS266      0.1752
     69  C         35.4630   48.2910   34.9760 C.2   266  HIS266      0.2596
     70  O         34.4620   48.3880   34.2500 O.2   266  HIS266     -0.2718
     71  CB        35.7020   45.7020   35.2280 C.3   266  HIS266      0.0759
     72  CG        36.7510   45.5770   34.1880 C.ar  266  HIS266      0.0818
     73  ND1       38.0500   45.3460   34.4120 N.ar  266  HIS266     -0.2268
     74  CD2       36.6980   45.8350   32.8970 C.ar  266  HIS266      0.1154
     75  CE1       38.7720   45.4810   33.3150 C.ar  266  HIS266      0.1986
     76  NE2       37.9600   45.7840   32.3780 N.ar  266  HIS266     -0.2212
     77  N         36.3860   49.2470   35.0610 N.am  267  GLY267     -0.1957
     78  CA        36.3230   50.4660   34.2640 C.3   267  GLY267      0.1869
     79  C         35.7130   50.2760   32.8930 C.2   267  GLY267      0.2309
     80  O         36.0840   49.3560   32.1550 O.2   267  GLY267     -0.2863
     81  N         34.4540   51.4330   28.9150 N.3   269  THR269     -0.1218
     82  CA        35.0360   52.0370   27.7250 C.3   269  THR269      0.1862
     83  C         34.5790   53.4780   27.5770 C.2   269  THR269      0.2287
     84  O         35.3380   54.3390   27.1490 O.2   269  THR269     -0.2866
     85  CB        34.6320   51.2390   26.4590 C.3   269  THR269      0.1770
     86  OG1       35.1810   49.9160   26.5350 O.3   269  THR269     -0.2211
     87  CG2       35.1420   51.9200   25.2030 C.3   269  THR269      0.0375
     88  N         34.2490   58.8230   28.4180 N.3   272  LYS272     -0.1245
     89  CA        35.5690   59.2340   28.8670 C.3   272  LYS272      0.1561
     90  C         35.9200   60.5970   28.3040 C.2   272  LYS272      0.2260
     91  O         35.4780   60.9730   27.2150 O.2   272  LYS272     -0.2867
     92  CB        36.6360   58.2270   28.4300 C.3   272  LYS272      0.0271
     93  CG        36.7910   57.0390   29.3510 C.3   272  LYS272      0.0035
     94  CD        37.9050   56.1250   28.8690 C.3   272  LYS272      0.0206
     95  CE        38.1650   55.0020   29.8610 C.3   272  LYS272      0.1093
     96  NZ        39.2160   54.0630   29.3680 N.3   272  LYS272     -0.1314
     97  N         25.9000   46.4360   19.2810 N.3   310  TRP310     -0.1241
     98  CA        26.8570   45.5340   19.8930 C.3   310  TRP310      0.1605
     99  C         26.7260   45.3810   21.4160 C.2   310  TRP310      0.2264
    100  O         26.8370   46.3540   22.1660 O.2   310  TRP310     -0.2867
    101  CB        28.2830   45.9620   19.5520 C.3   310  TRP310      0.0550
    102  CG        29.2850   44.9070   19.9200 C.ar  310  TRP310      0.0003
    103  CD1       29.4110   43.6680   19.3550 C.ar  310  TRP310      0.0946
    104  CD2       30.2670   44.9730   20.9680 C.ar  310  TRP310      0.0152
    105  NE1       30.4030   42.9540   19.9870 N.ar  310  TRP310     -0.2442
    106  CE2       30.9420   43.7280   20.9810 C.ar  310  TRP310      0.0810
    107  CE3       30.6320   45.9550   21.9010 C.ar  310  TRP310      0.0012
    108  CZ2       31.9740   43.4430   21.8900 C.ar  310  TRP310      0.0191
    109  CZ3       31.6530   45.6740   22.8010 C.ar  310  TRP310      0.0001
    110  CH2       32.3110   44.4250   22.7920 C.ar  310  TRP310      0.0015
    111  N         25.5110   43.0980   28.1750 N.3   314  TRP314     -0.1241
    112  CA        26.7130   42.6380   28.8700 C.3   314  TRP314      0.1605
    113  C         26.6980   43.3100   30.2400 C.2   314  TRP314      0.2264
    114  O         27.5800   44.1060   30.5760 O.2   314  TRP314     -0.2867
    115  CB        27.9830   43.0470   28.1250 C.3   314  TRP314      0.0550
    116  CG        29.1590   42.1720   28.4500 C.ar  314  TRP314      0.0003
    117  CD1       29.3700   41.4690   29.6080 C.ar  314  TRP314      0.0946
    118  CD2       30.2690   41.8770   27.5950 C.ar  314  TRP314      0.0152
    119  NE1       30.5370   40.7490   29.5200 N.ar  314  TRP314     -0.2442
    120  CE2       31.1110   40.9820   28.2920 C.ar  314  TRP314      0.0810
    121  CE3       30.6350   42.2790   26.3030 C.ar  314  TRP314      0.0012
    122  CZ2       32.2960   40.4810   27.7430 C.ar  314  TRP314      0.0191
    123  CZ3       31.8170   41.7810   25.7540 C.ar  314  TRP314      0.0001
    124  CH2       32.6300   40.8920   26.4730 C.ar  314  TRP314      0.0015
    125  N         35.3230   40.6070   29.9630 N.3   337  TRP337     -0.1241
    126  CA        35.8740   40.7540   28.6100 C.3   337  TRP337      0.1605
    127  C         37.0910   39.8810   28.3680 C.2   337  TRP337      0.2264
    128  O         37.4270   39.5800   27.2200 O.2   337  TRP337     -0.2867
    129  CB        36.2320   42.2140   28.3110 C.3   337  TRP337      0.0550
    130  CG        37.6110   42.6290   28.7400 C.ar  337  TRP337      0.0003
    131  CD1       37.9860   43.1320   29.9600 C.ar  337  TRP337      0.0946
    132  CD2       38.8050   42.5700   27.9470 C.ar  337  TRP337      0.0152
    133  NE1       39.3380   43.3860   29.9700 N.ar  337  TRP337     -0.2442
    134  CE2       39.8660   43.0450   28.7510 C.ar  337  TRP337      0.0810
    135  CE3       39.0810   42.1520   26.6390 C.ar  337  TRP337      0.0012
    136  CZ2       41.1820   43.1240   28.2810 C.ar  337  TRP337      0.0191
    137  CZ3       40.3870   42.2300   26.1740 C.ar  337  TRP337      0.0001
    138  CH2       41.4210   42.7080   26.9950 C.ar  337  TRP337      0.0015
    139  N         47.7410   43.1720   25.7400 N.3   349  ASP349     -0.1239
    140  CA        46.4780   43.8210   26.0670 C.3   349  ASP349      0.1674
    141  C         45.6800   43.0760   27.1420 C.2   349  ASP349      0.2266
    142  O         45.6070   43.5150   28.2920 O.2   349  ASP349     -0.2867
    143  CB        45.6540   43.9840   24.7840 C.3   349  ASP349      0.1410
    144  CG        44.5060   44.9440   24.9510 C.2   349  ASP349      0.3668
    145  OD1       44.6970   45.9700   25.6370 O.co2 349  ASP349     -0.2456
    146  OD2       43.4200   44.6820   24.3870 O.co2 349  ASP349     -0.2456
    147  N         44.9900   43.8280   31.3280 N.3   353  TRP353     -0.1241
    148  CA        43.7370   44.5420   31.5220 C.3   353  TRP353      0.1605
    149  C         42.5380   43.6220   31.6360 C.2   353  TRP353      0.2264
    150  O         41.4000   44.0750   31.5890 O.2   353  TRP353     -0.2867
    151  CB        43.5250   45.5280   30.3740 C.3   353  TRP353      0.0550
    152  CG        44.6010   46.5540   30.2920 C.ar  353  TRP353      0.0003
    153  CD1       45.2870   46.9370   29.1750 C.ar  353  TRP353      0.0946
    154  CD2       45.1360   47.3220   31.3780 C.ar  353  TRP353      0.0152
    155  NE1       46.2210   47.8910   29.5010 N.ar  353  TRP353     -0.2442
    156  CE2       46.1510   48.1430   30.8450 C.ar  353  TRP353      0.0810
    157  CE3       44.8590   47.3890   32.7510 C.ar  353  TRP353      0.0012
    158  CZ2       46.8900   49.0290   31.6400 C.ar  353  TRP353      0.0191
    159  CZ3       45.5930   48.2690   33.5420 C.ar  353  TRP353      0.0001
    160  CH2       46.5990   49.0760   32.9830 C.ar  353  TRP353      0.0015
    161  N         33.2330   45.9390   30.1230 N.3   358  ALA358     -0.1231
    162  CA        33.6540   47.3140   29.8740 C.3   358  ALA358      0.1694
    163  C         32.5100   48.0860   29.2370 C.2   358  ALA358      0.2591
    164  O         32.6430   49.2620   28.9120 O.2   358  ALA358     -0.2718
    165  CB        34.8660   47.3330   28.9460 C.3   358  ALA358      0.0304
    166  N         31.3760   47.4220   29.0720 N.am  359  VAL359     -0.1980
    167  CA        30.2380   48.0540   28.4340 C.3   359  VAL359      0.1595
    168  C         28.8950   47.8730   29.1390 C.2   359  VAL359      0.2287
    169  O         27.8400   48.0270   28.5220 O.2   359  VAL359     -0.2864
    170  CB        30.1100   47.5570   26.9710 C.3   359  VAL359      0.0276
    171  CG1       31.4000   47.8650   26.2050 C.3   359  VAL359      0.0022
    172  CG2       29.8230   46.0530   26.9480 C.3   359  VAL359      0.0022
@<TRIPOS>BOND
     1    39    38    1
     2    39    40    2
     3    38    37    1
     4    38    41    1
     5    41    42    1
     6    42    43    1
     7    58    59    1
     8    23    22    2
     9    43    45   ar
    10    43    44   ar
    11    22    21    1
    12    61    60    2
    13    19    16    1
    14    59    60    1
    15    59    62    1
    16    31    30    2
    17    21    20    1
    18    21    24    1
    19    30    29    1
    20    62    63    1
    21    20    17   am
    22    18    17    2
    23    63    64    1
    24    17    16    1
    25    46    47    1
    26    16    15    1
    27    66    64   ar
    28    28    29    1
    29    64    65   ar
    30    29    32    1
    31    24    25    1
    32    49    48    2
    33    26    25   ar
    34    15     3   am
    35    48    47    1
    36    47    50    1
    37    53    55   ar
    38    53    51   ar
    39    55    56   ar
    40    25    27   ar
    41    32    33    1
    42    50    51    1
    43    51    52   ar
    44     3     4    2
    45     3     2    1
    46    56    57    1
    47    56    54   ar
    48    97    98    1
    49   103   102   ar
    50   103   105   ar
    51    33    34    1
    52   101    98    1
    53   101   102    1
    54    52    54   ar
    55    98    99    1
    56   102   104   ar
    57   105   106   ar
    58     2     1    1
    59     2     5    1
    60    34    35    1
    61   104   106   ar
    62   104   107   ar
    63   106   108   ar
    64    35    36    1
    65     5     6    1
    66    99   100    2
    67    11    13   ar
    68    11     8   ar
    69   108   110   ar
    70   107   109   ar
    71    13    14   ar
    72     6     8   ar
    73     6     7   ar
    74     8    10   ar
    75   110   109   ar
    76    14    12   ar
    77     7     9   ar
    78    10    12   ar
    79    10     9   ar
    80   146   144   ar
    81   143   144    1
    82   143   140    1
    83   144   145   ar
    84    87    85    1
    85   139   140    1
    86   123   121   ar
    87   123   124   ar
    88   140   141    1
    89   137   135   ar
    90   137   138   ar
    91   171   170    1
    92   121   118   ar
    93    85    86    1
    94    85    82    1
    95   124   122   ar
    96   135   132   ar
    97   172   170    1
    98   170   167    1
    99   138   136   ar
   100   141   142    2
   101    84    83    2
   102    91    90    2
   103   128   127    2
   104    83    82    1
   105   118   120   ar
   106   118   116   ar
   107    82    81    1
   108   122   120   ar
   109   132   130   ar
   110   132   134   ar
   111   115   116    1
   112   115   112    1
   113   111   112    1
   114   136   134   ar
   115   120   119   ar
   116    90    89    1
   117   129   126    1
   118   129   130    1
   119   127   126    1
   120    88    89    1
   121    92    89    1
   122    92    93    1
   123   167   166    1
   124   167   168    1
   125   116   117   ar
   126   169   168    2
   127   126   125    1
   128   130   131   ar
   129   134   133   ar
   130    94    93    1
   131    94    95    1
   132   112   113    1
   133   164   163    2
   134   165   162    1
   135   166   163   am
   136   153   155   ar
   137   153   152   ar
   138   163   162    1
   139    96    95    1
   140   155   156   ar
   141   119   117   ar
   142   162   161    1
   143   131   133   ar
   144   113   114    2
   145   152   151    1
   146   152   154   ar
   147   151   148    1
   148   156   154   ar
   149   156   158   ar
   150   147   148    1
   151   154   157   ar
   152   148   149    1
   153   150   149    2
   154   158   160   ar
   155    80    79    2
   156    76    74   ar
   157    76    75   ar
   158   157   159   ar
   159    79    78    1
   160    74    72   ar
   161   160   159   ar
   162    75    73   ar
   163    72    73   ar
   164    72    71    1
   165    70    69    2
   166    78    77    1
   167    69    77   am
   168    69    68    1
   169    71    68    1
   170    68    67    1
