@<TRIPOS>MOLECULE
tmp/1ur9A01.pdb
 136 134 0 0 0
SMALL
GASTEIGER

@<TRIPOS>ATOM
      1  N         18.9380   48.5840  110.6590 N.3     8  TYR8       -0.1241
      2  CA        17.6330   48.1550  110.1510 C.3     8  TYR8        0.1605
      3  C         17.2510   47.0570  111.1500 C.2     8  TYR8        0.2264
      4  O         18.1310   46.4080  111.7150 O.2     8  TYR8       -0.2867
      5  CB        17.7360   47.5520  108.7550 C.3     8  TYR8        0.0534
      6  CG        17.7450   48.5570  107.6380 C.ar    8  TYR8       -0.0201
      7  CD1       18.9250   49.1680  107.2290 C.ar    8  TYR8       -0.0009
      8  CD2       16.5520   48.9190  106.9890 C.ar    8  TYR8       -0.0009
      9  CE1       18.9330   50.1190  106.1990 C.ar    8  TYR8        0.0417
     10  CE2       16.5470   49.8660  105.9610 C.ar    8  TYR8        0.0417
     11  CZ        17.7360   50.4720  105.5720 C.ar    8  TYR8        0.1957
     12  OH        17.7390   51.4690  104.6140 O.3     8  TYR8       -0.2866
     13  N          9.5580   45.5380  107.5030 N.3    49  PHE49      -0.1241
     14  CA         9.3230   46.5060  106.4320 C.3    49  PHE49       0.1605
     15  C          7.8490   46.7860  106.3570 C.2    49  PHE49       0.2264
     16  O          7.0340   45.9330  106.7150 O.2    49  PHE49      -0.2867
     17  CB         9.6680   45.9480  105.0480 C.3    49  PHE49       0.0534
     18  CG        11.1220   45.9380  104.7290 C.ar   49  PHE49      -0.0203
     19  CD1       11.8030   47.1330  104.4710 C.ar   49  PHE49      -0.0042
     20  CD2       11.8120   44.7270  104.6600 C.ar   49  PHE49      -0.0042
     21  CE1       13.1560   47.1280  104.1450 C.ar   49  PHE49      -0.0003
     22  CE2       13.1770   44.7030  104.3320 C.ar   49  PHE49      -0.0003
     23  CZ        13.8490   45.9000  104.0750 C.ar   49  PHE49      -0.0000
     24  N         13.5950   43.7100   99.6950 N.3    95  TRP95      -0.1227
     25  CA        13.6770   42.8500   98.5330 C.3    95  TRP95       0.1737
     26  C         12.3760   42.1230   98.2210 C.2    95  TRP95       0.2595
     27  O         11.9050   42.2050   97.1080 O.2    95  TRP95      -0.2718
     28  CB        14.8100   41.8330   98.6680 C.3    95  TRP95       0.0564
     29  CG        14.9160   40.9720   97.4590 C.ar   95  TRP95       0.0003
     30  CD1       14.3840   39.7260   97.2910 C.ar   95  TRP95       0.0946
     31  CD2       15.4860   41.3380   96.2000 C.ar   95  TRP95       0.0152
     32  NE1       14.5860   39.3010   95.9990 N.ar   95  TRP95      -0.2442
     33  CE2       15.2580   40.2720   95.3090 C.ar   95  TRP95       0.0810
     34  CE3       16.1650   42.4710   95.7320 C.ar   95  TRP95       0.0012
     35  CZ2       15.6810   40.3060   93.9850 C.ar   95  TRP95       0.0191
     36  CZ3       16.5820   42.5050   94.4190 C.ar   95  TRP95       0.0001
     37  CH2       16.3370   41.4260   93.5550 C.ar   95  TRP95       0.0015
     38  N         11.8130   41.4350   99.2030 N.am   96  TYR96      -0.1976
     39  CA        10.5860   40.6610   99.0020 C.3    96  TYR96       0.1639
     40  C          9.4370   41.4670   98.3850 C.2    96  TYR96       0.2290
     41  O          8.8790   41.0970   97.3370 O.2    96  TYR96      -0.2864
     42  CB        10.1410   40.0500  100.3300 C.3    96  TYR96       0.0560
     43  CG         8.8830   39.2190  100.2070 C.ar   96  TYR96      -0.0198
     44  CD1        8.8260   38.1450   99.3130 C.ar   96  TYR96      -0.0009
     45  CD2        7.7570   39.4920  100.9910 C.ar   96  TYR96      -0.0009
     46  CE1        7.6780   37.3610   99.1980 C.ar   96  TYR96       0.0417
     47  CE2        6.6000   38.7090  100.8840 C.ar   96  TYR96       0.0417
     48  CZ         6.5740   37.6440   99.9810 C.ar   96  TYR96       0.1957
     49  OH         5.4360   36.8670   99.8510 O.3    96  TYR96      -0.2866
     50  N         13.2920   51.8340  100.5750 N.3   140  ASN140     -0.1240
     51  CA        14.1590   50.7410  100.0990 C.3   140  ASN140      0.1653
     52  C         13.5060   49.9990   98.9390 C.2   140  ASN140      0.2266
     53  O         13.2190   48.8010   99.0270 O.2   140  ASN140     -0.2867
     54  CB        14.4230   49.7830  101.2600 C.3   140  ASN140      0.1155
     55  CG        15.3790   48.6160  100.9050 C.2   140  ASN140      0.2627
     56  OD1       15.3620   47.6120  101.5870 O.2   140  ASN140     -0.2716
     57  ND2       16.2130   48.7780   99.8970 N.am  140  ASN140     -0.0877
     58  N         13.9540   48.3730   95.6240 N.3   142  GLU142     -0.1245
     59  CA        15.0950   47.8100   94.9130 C.3   142  GLU142      0.1567
     60  C         14.6970   47.2250   93.5530 C.2   142  GLU142      0.2260
     61  O         14.3690   46.0480   93.4820 O.2   142  GLU142     -0.2867
     62  CB        15.7280   46.7230   95.7820 C.3   142  GLU142      0.0388
     63  CG        15.6470   47.0250   97.2770 C.3   142  GLU142      0.1160
     64  CD        16.4850   46.0940   98.1220 C.2   142  GLU142      0.3649
     65  OE1       17.6540   46.4470   98.4130 O.co2 142  GLU142     -0.2457
     66  OE2       15.9730   45.0140   98.4870 O.co2 142  GLU142     -0.2457
     67  N         17.6950   53.5210  100.9740 N.3   182  ALA182     -0.1245
     68  CA        18.7700   52.5200  100.9850 C.3   182  ALA182      0.1562
     69  C         19.1890   52.5410   99.5160 C.2   182  ALA182      0.2260
     70  O         18.3450   52.4530   98.6100 O.2   182  ALA182     -0.2867
     71  CB        18.2310   51.1250  101.3880 C.3   182  ALA182      0.0290
     72  N         23.9400   49.8810  100.4510 N.3   210  MET210     -0.1245
     73  CA        23.8910   48.4700  100.8090 C.3   210  MET210      0.1570
     74  C         25.1810   47.8320  100.3120 C.2   210  MET210      0.2261
     75  O         25.1910   47.1090   99.3330 O.2   210  MET210     -0.2867
     76  CB        22.6390   47.8330  100.1850 C.3   210  MET210      0.0387
     77  CG        21.4000   48.5330  100.7020 C.3   210  MET210      0.0595
     78  SD        19.9050   47.8540  100.0230 S.3   210  MET210     -0.1393
     79  CE        19.7490   48.8190   98.5370 C.3   210  MET210      0.0692
     80  N         26.9270   45.3570  100.7740 N.3   212  TYR212     -0.1227
     81  CA        26.9630   43.9470  101.1740 C.3   212  TYR212      0.1736
     82  C         26.2220   43.2090  100.0430 C.2   212  TYR212      0.2595
     83  O         25.7720   43.8430   99.0900 O.2   212  TYR212     -0.2718
     84  CB        26.3400   43.6980  102.5720 C.3   212  TYR212      0.0548
     85  CG        25.0900   44.4860  102.9060 C.ar  212  TYR212     -0.0200
     86  CD1       23.8650   44.1680  102.3260 C.ar  212  TYR212     -0.0009
     87  CD2       25.1420   45.5620  103.8060 C.ar  212  TYR212     -0.0009
     88  CE1       22.7010   44.9230  102.6360 C.ar  212  TYR212      0.0417
     89  CE2       23.9900   46.3140  104.1160 C.ar  212  TYR212      0.0417
     90  CZ        22.7740   45.9810  103.5240 C.ar  212  TYR212      0.1957
     91  OH        21.6310   46.7040  103.8350 O.3   212  TYR212     -0.2866
     92  N         26.1360   41.8870  100.1140 N.am  213  ASP213     -0.1974
     93  CA        25.5290   41.1200   99.0060 C.3   213  ASP213      0.1709
     94  C         26.3080   41.3650   97.7000 C.2   213  ASP213      0.2293
     95  O         25.7510   41.2470   96.5950 O.2   213  ASP213     -0.2864
     96  CB        24.0480   41.4960   98.7760 C.3   213  ASP213      0.1436
     97  CG        23.0910   40.9140   99.8140 C.2   213  ASP213      0.3671
     98  OD1       23.4850   40.2100  100.7630 O.co2 213  ASP213     -0.2456
     99  OD2       21.8840   41.1960   99.6750 O.co2 213  ASP213     -0.2456
    100  N         25.1530   39.3090  108.8180 N.3   290  TYR290     -0.1241
    101  CA        24.9280   37.9010  108.4310 C.3   290  TYR290      0.1605
    102  C         25.9930   37.4650  107.4400 C.2   290  TYR290      0.2264
    103  O         26.6770   38.2970  106.8390 O.2   290  TYR290     -0.2867
    104  CB        23.5610   37.7240  107.7550 C.3   290  TYR290      0.0534
    105  CG        23.4410   38.5970  106.5240 C.ar  290  TYR290     -0.0201
    106  CD1       23.1300   39.9600  106.6400 C.ar  290  TYR290     -0.0009
    107  CD2       23.7610   38.1060  105.2720 C.ar  290  TYR290     -0.0009
    108  CE1       23.1510   40.8070  105.5250 C.ar  290  TYR290      0.0417
    109  CE2       23.7970   38.9400  104.1400 C.ar  290  TYR290      0.0417
    110  CZ        23.4930   40.2920  104.2810 C.ar  290  TYR290      0.1957
    111  OH        23.5860   41.1170  103.1890 O.3   290  TYR290     -0.2866
    112  N         27.0380   34.7250  104.0390 N.3   292  ARG292     -0.1245
    113  CA        26.4750   33.9590  102.9330 C.3   292  ARG292      0.1563
    114  C         27.3670   32.7270  102.7580 C.2   292  ARG292      0.2260
    115  O         28.6090   32.8410  102.7600 O.2   292  ARG292     -0.2867
    116  CB        26.4120   34.8050  101.6600 C.3   292  ARG292      0.0307
    117  CG        25.2710   35.8250  101.7200 C.3   292  ARG292      0.0489
    118  CD        25.0960   36.6090  100.4230 C.3   292  ARG292      0.2205
    119  NE        23.9380   37.4980  100.4870 N.pl3 292  ARG292     -0.0865
    120  CZ        22.6650   37.0910  100.4960 C.cat 292  ARG292      0.5346
    121  NH1       22.3640   35.7970  100.4320 N.pl3 292  ARG292      0.1354
    122  NH2       21.6790   37.9810  100.6020 N.pl3 292  ARG292      0.1354
    123  N         22.4690   45.7170  108.2000 N.3   401  TRP401     -0.1241
    124  CA        21.3510   44.8000  107.9790 C.3   401  TRP401      0.1605
    125  C         21.7320   43.4540  108.6070 C.2   401  TRP401      0.2264
    126  O         22.5820   42.7760  108.0720 O.2   401  TRP401     -0.2867
    127  CB        21.1080   44.5600  106.4860 C.3   401  TRP401      0.0550
    128  CG        19.9610   43.6290  106.2920 C.ar  401  TRP401      0.0003
    129  CD1       20.0000   42.2570  106.2590 C.ar  401  TRP401      0.0946
    130  CD2       18.5750   43.9910  106.2840 C.ar  401  TRP401      0.0152
    131  NE1       18.7260   41.7470  106.2440 N.ar  401  TRP401     -0.2442
    132  CE2       17.8290   42.7880  106.2490 C.ar  401  TRP401      0.0810
    133  CE3       17.8930   45.2140  106.3030 C.ar  401  TRP401      0.0012
    134  CZ2       16.4320   42.7730  106.2320 C.ar  401  TRP401      0.0191
    135  CZ3       16.4890   45.1970  106.2900 C.ar  401  TRP401      0.0001
    136  CH2       15.7830   43.9850  106.2540 C.ar  401  TRP401      0.0015
@<TRIPOS>BOND
     1    61    60    2
     2    60    59    1
     3    37    35   ar
     4    37    36   ar
     5    35    33   ar
     6    36    34   ar
     7    59    58    1
     8    59    62    1
     9    33    32   ar
    10    33    31   ar
    11    34    31   ar
    12    62    63    1
    13    32    30   ar
    14    31    29   ar
    15    95    94    2
    16    27    26    2
    17    63    64    1
    18    30    29   ar
    19    41    40    2
    20    29    28    1
    21    94    93    1
    22    64    65   ar
    23    64    66   ar
    24    26    25    1
    25    26    38   am
    26    40    39    1
    27    25    28    1
    28    25    24    1
    29    79    78    1
    30    70    69    2
    31    96    93    1
    32    96    97    1
    33    52    53    2
    34    52    51    1
    35    39    38    1
    36    39    42    1
    37    93    92    1
    38    83    82    2
    39    46    44   ar
    40    46    48   ar
    41    44    43   ar
    42    75    74    2
    43    69    68    1
    44    99    97   ar
    45    97    98   ar
    46    49    48    1
    47    57    55   am
    48    48    47   ar
    49    78    77    1
    50    82    92   am
    51    82    81    1
    52    51    50    1
    53    51    54    1
    54    76    77    1
    55    76    73    1
    56    43    42    1
    57    43    45   ar
    58    74    73    1
    59   118   119    1
    60   118   117    1
    61   121   120    1
    62    72    73    1
    63   119   120    2
    64   120   122    1
    65    80    81    1
    66    47    45   ar
    67    55    54    1
    68    55    56    2
    69    67    68    1
    70    68    71    1
    71    81    84    1
    72   116   117    1
    73   116   113    1
    74    86    88   ar
    75    86    85   ar
    76    84    85    1
    77    88    90   ar
    78   114   115    2
    79   114   113    1
    80    85    87   ar
    81   113   112    1
    82   111   110    1
    83    90    91    1
    84    90    89   ar
    85    87    89   ar
    86    23    21   ar
    87    23    22   ar
    88   109   110   ar
    89   109   107   ar
    90    21    19   ar
    91   110   108   ar
    92    22    20   ar
    93    19    18   ar
    94    12    11    1
    95    20    18   ar
    96    18    17    1
    97    17    14    1
    98   107   105   ar
    99   108   106   ar
   100    11    10   ar
   101    11     9   ar
   102    10     8   ar
   103     9     7   ar
   104   134   132   ar
   105   134   136   ar
   106   131   132   ar
   107   131   129   ar
   108   132   130   ar
   109   136   135   ar
   110   129   128   ar
   111   130   128   ar
   112   130   133   ar
   113   135   133   ar
   114   128   127    1
   115    15    14    1
   116    15    16    2
   117    14    13    1
   118   127   124    1
   119   105   106   ar
   120   105   104    1
   121   103   102    2
   122     8     6   ar
   123     7     6   ar
   124   102   101    1
   125     6     5    1
   126   104   101    1
   127   124   123    1
   128   124   125    1
   129   126   125    2
   130   101   100    1
   131     5     2    1
   132     2     1    1
   133     2     3    1
   134     3     4    2
