@<TRIPOS>MOLECULE
tmp/1ur9A00.pdb
 128 130 0 0 0
SMALL
GASTEIGER

@<TRIPOS>ATOM
      1  N         14.4920   43.9780  111.1480 N.3    10  PHE10      -0.1241
      2  CA        13.4530   43.3090  110.3710 C.3    10  PHE10       0.1605
      3  C         12.7450   42.2450  111.1870 C.2    10  PHE10       0.2264
      4  O         13.3760   41.3900  111.8010 O.2    10  PHE10      -0.2867
      5  CB        14.0810   42.6800  109.1160 C.3    10  PHE10       0.0534
      6  CG        13.1320   41.8060  108.3180 C.ar   10  PHE10      -0.0203
      7  CD1       12.0970   42.3690  107.5840 C.ar   10  PHE10      -0.0042
      8  CD2       13.2990   40.4240  108.2910 C.ar   10  PHE10      -0.0042
      9  CE1       11.2360   41.5790  106.8290 C.ar   10  PHE10      -0.0003
     10  CE2       12.4310   39.6050  107.5250 C.ar   10  PHE10      -0.0003
     11  CZ        11.4060   40.1830  106.8000 C.ar   10  PHE10      -0.0000
     12  N          9.5580   45.5380  107.5030 N.3    49  PHE49      -0.1241
     13  CA         9.3230   46.5060  106.4320 C.3    49  PHE49       0.1605
     14  C          7.8490   46.7860  106.3570 C.2    49  PHE49       0.2264
     15  O          7.0340   45.9330  106.7150 O.2    49  PHE49      -0.2867
     16  CB         9.6680   45.9480  105.0480 C.3    49  PHE49       0.0534
     17  CG        11.1220   45.9380  104.7290 C.ar   49  PHE49      -0.0203
     18  CD1       11.8030   47.1330  104.4710 C.ar   49  PHE49      -0.0042
     19  CD2       11.8120   44.7270  104.6600 C.ar   49  PHE49      -0.0042
     20  CE1       13.1560   47.1280  104.1450 C.ar   49  PHE49      -0.0003
     21  CE2       13.1770   44.7030  104.3320 C.ar   49  PHE49      -0.0003
     22  CZ        13.8490   45.9000  104.0750 C.ar   49  PHE49      -0.0000
     23  N         12.0590   46.8670  100.5620 N.3    94  GLY94      -0.1210
     24  CA        12.8300   45.6800  100.8770 C.3    94  GLY94       0.1956
     25  C         12.8390   44.7990   99.6390 C.2    94  GLY94       0.2612
     26  O         12.1640   45.0920   98.6280 O.2    94  GLY94      -0.2717
     27  N         13.5950   43.7100   99.6950 N.am   95  TRP95      -0.1962
     28  CA        13.6770   42.8500   98.5330 C.3    95  TRP95       0.1771
     29  C         12.3760   42.1230   98.2210 C.2    95  TRP95       0.2620
     30  O         11.9050   42.2050   97.1080 O.2    95  TRP95      -0.2715
     31  CB        14.8100   41.8330   98.6680 C.3    95  TRP95       0.0590
     32  CG        14.9160   40.9720   97.4590 C.ar   95  TRP95       0.0006
     33  CD1       14.3840   39.7260   97.2910 C.ar   95  TRP95       0.0946
     34  CD2       15.4860   41.3380   96.2000 C.ar   95  TRP95       0.0152
     35  NE1       14.5860   39.3010   95.9990 N.ar   95  TRP95      -0.2442
     36  CE2       15.2580   40.2720   95.3090 C.ar   95  TRP95       0.0810
     37  CE3       16.1650   42.4710   95.7320 C.ar   95  TRP95       0.0012
     38  CZ2       15.6810   40.3060   93.9850 C.ar   95  TRP95       0.0191
     39  CZ3       16.5820   42.5050   94.4190 C.ar   95  TRP95       0.0001
     40  CH2       16.3370   41.4260   93.5550 C.ar   95  TRP95       0.0015
     41  N         11.8130   41.4350   99.2030 N.am   96  TYR96      -0.1960
     42  CA        10.5860   40.6610   99.0020 C.3    96  TYR96       0.1771
     43  C          9.4370   41.4670   98.3850 C.2    96  TYR96       0.2619
     44  O          8.8790   41.0970   97.3370 O.2    96  TYR96      -0.2715
     45  CB        10.1410   40.0500  100.3300 C.3    96  TYR96       0.0574
     46  CG         8.8830   39.2190  100.2070 C.ar   96  TYR96      -0.0198
     47  CD1        8.8260   38.1450   99.3130 C.ar   96  TYR96      -0.0009
     48  CD2        7.7570   39.4920  100.9910 C.ar   96  TYR96      -0.0009
     49  CE1        7.6780   37.3610   99.1980 C.ar   96  TYR96       0.0417
     50  CE2        6.6000   38.7090  100.8840 C.ar   96  TYR96       0.0417
     51  CZ         6.5740   37.6440   99.9810 C.ar   96  TYR96       0.1957
     52  OH         5.4360   36.8670   99.8510 O.3    96  TYR96      -0.2866
     53  N          9.0880   42.5820   99.0150 N.am   97  TYR97      -0.1974
     54  CA         8.0000   43.3990   98.4980 C.3    97  TYR97       0.1639
     55  C          8.2810   44.1420   97.1970 C.2    97  TYR97       0.2290
     56  O          7.4670   44.1250   96.2760 O.2    97  TYR97      -0.2864
     57  CB         7.5570   44.4600   99.5220 C.3    97  TYR97       0.0560
     58  CG         6.9830   43.9610  100.8340 C.ar   97  TYR97      -0.0198
     59  CD1        6.1270   42.8540  100.8800 C.ar   97  TYR97      -0.0009
     60  CD2        7.2240   44.6550  102.0200 C.ar   97  TYR97      -0.0009
     61  CE1        5.5270   42.4530  102.0900 C.ar   97  TYR97       0.0417
     62  CE2        6.6260   44.2710  103.2270 C.ar   97  TYR97       0.0417
     63  CZ         5.7780   43.1650  103.2510 C.ar   97  TYR97       0.1957
     64  OH         5.2030   42.7820  104.4410 O.3    97  TYR97      -0.2866
     65  N         25.1530   39.3090  108.8180 N.3   290  TYR290     -0.1241
     66  CA        24.9280   37.9010  108.4310 C.3   290  TYR290      0.1605
     67  C         25.9930   37.4650  107.4400 C.2   290  TYR290      0.2264
     68  O         26.6770   38.2970  106.8390 O.2   290  TYR290     -0.2867
     69  CB        23.5610   37.7240  107.7550 C.3   290  TYR290      0.0534
     70  CG        23.4410   38.5970  106.5240 C.ar  290  TYR290     -0.0201
     71  CD1       23.1300   39.9600  106.6400 C.ar  290  TYR290     -0.0009
     72  CD2       23.7610   38.1060  105.2720 C.ar  290  TYR290     -0.0009
     73  CE1       23.1510   40.8070  105.5250 C.ar  290  TYR290      0.0417
     74  CE2       23.7970   38.9400  104.1400 C.ar  290  TYR290      0.0417
     75  CZ        23.4930   40.2920  104.2810 C.ar  290  TYR290      0.1957
     76  OH        23.5860   41.1170  103.1890 O.3   290  TYR290     -0.2866
     77  N         27.0380   34.7250  104.0390 N.3   292  ARG292     -0.1245
     78  CA        26.4750   33.9590  102.9330 C.3   292  ARG292      0.1563
     79  C         27.3670   32.7270  102.7580 C.2   292  ARG292      0.2260
     80  O         28.6090   32.8410  102.7600 O.2   292  ARG292     -0.2867
     81  CB        26.4120   34.8050  101.6600 C.3   292  ARG292      0.0307
     82  CG        25.2710   35.8250  101.7200 C.3   292  ARG292      0.0489
     83  CD        25.0960   36.6090  100.4230 C.3   292  ARG292      0.2205
     84  NE        23.9380   37.4980  100.4870 N.pl3 292  ARG292     -0.0865
     85  CZ        22.6650   37.0910  100.4960 C.cat 292  ARG292      0.5346
     86  NH1       22.3640   35.7970  100.4320 N.pl3 292  ARG292      0.1354
     87  NH2       21.6790   37.9810  100.6020 N.pl3 292  ARG292      0.1354
     88  N         22.4340   31.2550  104.1370 N.3   337  ILE337     -0.1245
     89  CA        22.4840   32.4630  104.9700 C.3   337  ILE337      0.1561
     90  C         22.4820   32.1010  106.4500 C.2   337  ILE337      0.2260
     91  O         21.7940   31.1790  106.8560 O.2   337  ILE337     -0.2867
     92  CB        21.2520   33.3480  104.7170 C.3   337  ILE337      0.0252
     93  CG1       21.3770   34.0140  103.3540 C.3   337  ILE337      0.0019
     94  CG2       21.0990   34.4080  105.8400 C.3   337  ILE337      0.0019
     95  CD1       22.4430   35.0550  103.3030 C.3   337  ILE337      0.0001
     96  N         22.4690   45.7170  108.2000 N.3   401  TRP401     -0.1227
     97  CA        21.3510   44.8000  107.9790 C.3   401  TRP401      0.1737
     98  C         21.7320   43.4540  108.6070 C.2   401  TRP401      0.2595
     99  O         22.5820   42.7760  108.0720 O.2   401  TRP401     -0.2718
    100  CB        21.1080   44.5600  106.4860 C.3   401  TRP401      0.0564
    101  CG        19.9610   43.6290  106.2920 C.ar  401  TRP401      0.0003
    102  CD1       20.0000   42.2570  106.2590 C.ar  401  TRP401      0.0946
    103  CD2       18.5750   43.9910  106.2840 C.ar  401  TRP401      0.0152
    104  NE1       18.7260   41.7470  106.2440 N.ar  401  TRP401     -0.2442
    105  CE2       17.8290   42.7880  106.2490 C.ar  401  TRP401      0.0810
    106  CE3       17.8930   45.2140  106.3030 C.ar  401  TRP401      0.0012
    107  CZ2       16.4320   42.7730  106.2320 C.ar  401  TRP401      0.0191
    108  CZ3       16.4890   45.1970  106.2900 C.ar  401  TRP401      0.0001
    109  CH2       15.7830   43.9850  106.2540 C.ar  401  TRP401      0.0015
    110  N         21.0530   43.0220  109.6690 N.am  402  HIS402     -0.1975
    111  CA        20.0830   43.8350  110.3990 C.3   402  HIS402      0.1656
    112  C         20.2520   43.4970  111.8880 C.2   402  HIS402      0.2291
    113  O         20.8800   42.4920  112.2310 O.2   402  HIS402     -0.2864
    114  CB        18.6410   43.6190  109.8790 C.3   402  HIS402      0.0771
    115  CG        18.0150   42.3190  110.2790 C.ar  402  HIS402      0.0820
    116  ND1       17.3170   42.1590  111.4610 N.ar  402  HIS402     -0.2267
    117  CD2       17.9400   41.1310  109.6270 C.ar  402  HIS402      0.1154
    118  CE1       16.8390   40.9270  111.5200 C.ar  402  HIS402      0.1986
    119  NE2       17.2000   40.2820  110.4190 N.ar  402  HIS402     -0.2212
    120  N         20.1220   40.1100  113.8250 N.3   405  GLN405     -0.1245
    121  CA        21.1310   39.0770  113.5660 C.3   405  GLN405      0.1566
    122  C         22.3750   39.1610  114.4440 C.2   405  GLN405      0.2260
    123  O         23.2600   38.3150  114.3300 O.2   405  GLN405     -0.2867
    124  CB        21.5380   39.1280  112.0820 C.3   405  GLN405      0.0367
    125  CG        20.3370   38.9600  111.1740 C.3   405  GLN405      0.0905
    126  CD        20.6460   39.1790  109.7190 C.2   405  GLN405      0.2608
    127  OE1       21.3870   40.1020  109.3690 O.2   405  GLN405     -0.2717
    128  NE2       20.0420   38.3630  108.8480 N.am  405  GLN405     -0.0878
@<TRIPOS>BOND
     1    40    38   ar
     2    40    39   ar
     3    38    36   ar
     4    39    37   ar
     5    36    35   ar
     6    36    34   ar
     7    37    34   ar
     8    35    33   ar
     9    34    32   ar
    10    56    55    2
    11    30    29    2
    12    55    54    1
    13    33    32   ar
    14    44    43    2
    15    32    31    1
    16    29    28    1
    17    29    41   am
    18    43    42    1
    19    43    53   am
    20    54    53    1
    21    54    57    1
    22    28    31    1
    23    28    27    1
    24    26    25    2
    25    42    41    1
    26    42    45    1
    27    49    47   ar
    28    49    51   ar
    29    47    46   ar
    30    57    58    1
    31    25    27   am
    32    25    24    1
    33    52    51    1
    34    51    50   ar
    35    46    45    1
    36    46    48   ar
    37    83    84    1
    38    83    82    1
    39    86    85    1
    40    84    85    2
    41    85    87    1
    42    23    24    1
    43    58    59   ar
    44    58    60   ar
    45    59    61   ar
    46    50    48   ar
    47    81    82    1
    48    81    78    1
    49    60    62   ar
    50    61    63   ar
    51    79    80    2
    52    79    78    1
    53    78    77    1
    54    76    75    1
    55    62    63   ar
    56    63    64    1
    57    95    93    1
    58    93    92    1
    59    22    20   ar
    60    22    21   ar
    61    88    89    1
    62    74    75   ar
    63    74    72   ar
    64    20    18   ar
    65    75    73   ar
    66    21    19   ar
    67    18    17   ar
    68    19    17   ar
    69    92    89    1
    70    92    94    1
    71    17    16    1
    72    89    90    1
    73    16    13    1
    74    72    70   ar
    75    73    71   ar
    76   107   105   ar
    77   107   109   ar
    78   104   105   ar
    79   104   102   ar
    80   105   103   ar
    81   109   108   ar
    82   102   101   ar
    83   103   101   ar
    84   103   106   ar
    85   108   106   ar
    86   101   100    1
    87    14    13    1
    88    14    15    2
    89    13    12    1
    90    90    91    2
    91   100    97    1
    92    70    71   ar
    93    70    69    1
    94    11     9   ar
    95    11    10   ar
    96     9     7   ar
    97    68    67    2
    98    67    66    1
    99    10     8   ar
   100     7     6   ar
   101    69    66    1
   102    97    96    1
   103    97    98    1
   104    99    98    2
   105     8     6   ar
   106     6     5    1
   107    66    65    1
   108    98   110   am
   109   128   126   am
   110     5     2    1
   111   127   126    2
   112   117   115   ar
   113   117   119   ar
   114   110   111    1
   115   126   125    1
   116   114   115    1
   117   114   111    1
   118   115   116   ar
   119     2     1    1
   120     2     3    1
   121   111   112    1
   122   119   118   ar
   123   125   124    1
   124     3     4    2
   125   116   118   ar
   126   112   113    2
   127   124   121    1
   128   121   120    1
   129   121   122    1
   130   123   122    2
