@<TRIPOS>MOLECULE
tmp/1urcB00.pdb
 141 137 0 0 0
SMALL
GASTEIGER

@<TRIPOS>ATOM
      1  N         46.8610   32.5880   -3.0090 N.3    36  MET36      -0.1245
      2  CA        45.7840   31.9050   -2.3030 C.3    36  MET36       0.1570
      3  C         44.4200   32.3900   -2.7910 C.2    36  MET36       0.2261
      4  O         43.4600   31.6120   -2.7670 O.2    36  MET36      -0.2867
      5  CB        45.8510   32.2440   -0.8030 C.3    36  MET36       0.0387
      6  CG        47.0280   31.6660   -0.0590 C.3    36  MET36       0.0595
      7  SD        46.7440   31.6250    1.7170 S.3    36  MET36      -0.1393
      8  CE        48.0790   32.5260    2.1860 C.3    36  MET36       0.0692
      9  N         43.9140   30.4900   -5.9960 N.3    39  ILE39      -0.1231
     10  CA        43.2550   29.2340   -5.6840 C.3    39  ILE39       0.1692
     11  C         41.7380   29.3820   -5.4710 C.2    39  ILE39       0.2591
     12  O         40.9530   28.5230   -5.8570 O.2    39  ILE39      -0.2718
     13  CB        43.9820   28.5970   -4.4560 C.3    39  ILE39       0.0266
     14  CG1       45.3550   28.1190   -4.9190 C.3    39  ILE39       0.0019
     15  CG2       43.2490   27.3910   -3.8760 C.3    39  ILE39       0.0020
     16  CD1       46.3800   28.1290   -3.8480 C.3    39  ILE39       0.0001
     17  N         41.3060   30.4410   -4.8000 N.am   40  LEU40      -0.1980
     18  CA        39.9180   30.5230   -4.3230 C.3    40  LEU40       0.1596
     19  C         39.0660   30.8240   -5.5410 C.2    40  LEU40       0.2287
     20  O         38.0750   30.1600   -5.7890 O.2    40  LEU40      -0.2864
     21  CB        39.7370   31.6420   -3.2740 C.3    40  LEU40       0.0297
     22  CG        38.3370   31.9840   -2.7450 C.3    40  LEU40       0.0022
     23  CD1       37.8280   30.9000   -1.8260 C.3    40  LEU40       0.0001
     24  CD2       38.2960   33.3200   -2.0050 C.3    40  LEU40       0.0001
     25  N         39.7300   30.3260   -8.8350 N.3    42  ASP42      -0.1225
     26  CA        39.7180   29.1540   -9.6760 C.3    42  ASP42       0.1805
     27  C         38.7210   28.1250   -9.2180 C.2    42  ASP42       0.2597
     28  O         38.0020   27.4960  -10.0160 O.2    42  ASP42      -0.2718
     29  CB        41.0850   28.4940   -9.6980 C.3    42  ASP42       0.1424
     30  CG        41.1660   27.4240  -10.7610 C.2    42  ASP42       0.3668
     31  OD1       40.8900   27.7030  -11.9440 O.co2  42  ASP42      -0.2456
     32  OD2       41.4160   26.2470  -10.5040 O.co2  42  ASP42      -0.2456
     33  N         38.7610   27.8850   -7.9180 N.am   43  TRP43      -0.1976
     34  CA        37.8050   26.9980   -7.2960 C.3    43  TRP43       0.1640
     35  C         36.3660   27.4630   -7.5000 C.2    43  TRP43       0.2290
     36  O         35.4540   26.6520   -7.7430 O.2    43  TRP43      -0.2864
     37  CB        38.1090   26.8600   -5.7940 C.3    43  TRP43       0.0576
     38  CG        37.0700   26.0820   -5.0780 C.ar   43  TRP43       0.0006
     39  CD1       36.7060   24.7980   -5.3280 C.ar   43  TRP43       0.0946
     40  CD2       36.1480   26.5810   -4.1170 C.ar   43  TRP43       0.0152
     41  NE1       35.6480   24.4340   -4.5330 N.ar   43  TRP43      -0.2442
     42  CE2       35.3040   25.5020   -3.7460 C.ar   43  TRP43       0.0810
     43  CE3       36.0200   27.7900   -3.4420 C.ar   43  TRP43       0.0012
     44  CZ2       34.3050   25.6050   -2.7600 C.ar   43  TRP43       0.0191
     45  CZ3       35.0400   27.8850   -2.4410 C.ar   43  TRP43       0.0001
     46  CH2       34.2140   26.7960   -2.1030 C.ar   43  TRP43       0.0015
     47  N         35.1820   26.4240  -10.8420 N.3    46  GLU46      -0.1245
     48  CA        34.7750   25.0060  -10.8560 C.3    46  GLU46       0.1567
     49  C         33.3800   24.8430  -10.2520 C.2    46  GLU46       0.2260
     50  O         32.4810   24.3130  -10.8950 O.2    46  GLU46      -0.2867
     51  CB        35.7600   24.1240  -10.0850 C.3    46  GLU46       0.0388
     52  CG        36.2200   22.8650  -10.7900 C.3    46  GLU46       0.1160
     53  CD        37.5340   22.3280  -10.2220 C.2    46  GLU46       0.3649
     54  OE1       37.9330   21.2190  -10.6380 O.co2  46  GLU46      -0.2457
     55  OE2       38.1840   22.9870   -9.3650 O.co2  46  GLU46      -0.2457
     56  N         43.8070   32.2800    6.6850 N.3    76  ARG76      -0.1231
     57  CA        43.7060   31.3580    5.5720 C.3    76  ARG76       0.1694
     58  C         42.6340   30.3240    5.8240 C.2    76  ARG76       0.2592
     59  O         41.8870   29.9920    4.9150 O.2    76  ARG76      -0.2718
     60  CB        45.0720   30.7640    5.2280 C.3    76  ARG76       0.0321
     61  CG        45.5590   29.6330    6.0830 C.3    76  ARG76       0.0489
     62  CD        47.0030   29.7910    6.4450 C.3    76  ARG76       0.2205
     63  NE        47.8900   29.5200    5.3270 N.pl3  76  ARG76      -0.0865
     64  CZ        49.0800   30.0860    5.2100 C.cat  76  ARG76       0.5346
     65  NH1       49.4680   30.9830    6.0880 N.pl3  76  ARG76       0.1354
     66  NH2       49.8820   29.7760    4.2100 N.pl3  76  ARG76       0.1354
     67  N         42.4980   29.8880    7.0810 N.am   77  GLY77      -0.1957
     68  CA        41.5320   28.8580    7.4410 C.3    77  GLY77       0.1869
     69  C         40.1080   29.2960    7.1250 C.2    77  GLY77       0.2309
     70  O         39.1810   28.4690    7.1250 O.2    77  GLY77      -0.2863
     71  N         39.4190   31.9590    4.5950 N.3    79  LEU79      -0.1231
     72  CA        39.1660   32.4630    3.2500 C.3    79  LEU79       0.1693
     73  C         38.0780   31.7580    2.4100 C.2    79  LEU79       0.2591
     74  O         37.2440   32.3620    1.7160 O.2    79  LEU79      -0.2718
     75  CB        40.4740   32.4590    2.4990 C.3    79  LEU79       0.0284
     76  CG        40.4330   33.0920    1.1140 C.3    79  LEU79       0.0019
     77  CD1       39.9990   34.5330    1.2600 C.3    79  LEU79       0.0001
     78  CD2       41.8730   33.0220    0.6010 C.3    79  LEU79       0.0001
     79  N         38.0510   30.4440    2.5020 N.am   80  GLN80      -0.1979
     80  CA        37.1320   29.6790    1.6710 C.3    80  GLN80       0.1601
     81  C         35.7120   29.8930    2.1970 C.2    80  GLN80       0.2287
     82  O         34.7390   29.8750    1.4440 O.2    80  GLN80      -0.2864
     83  CB        37.5280   28.2080    1.7210 C.3    80  GLN80       0.0394
     84  CG        36.7310   27.3610    0.7920 C.3    80  GLN80       0.0908
     85  CD        37.0520   25.8910    0.8430 C.2    80  GLN80       0.2608
     86  OE1       37.8080   25.4410    1.6890 O.2    80  GLN80      -0.2717
     87  NE2       36.3960   25.1270   -0.0150 N.am   80  GLN80      -0.0878
     88  N         28.2870   21.4520    1.2960 N.3   106  TYR106     -0.1227
     89  CA        28.8090   20.2330    0.6820 C.3   106  TYR106      0.1736
     90  C         30.0900   20.4900   -0.1120 C.2   106  TYR106      0.2595
     91  O         30.9930   19.6700   -0.0380 O.2   106  TYR106     -0.2718
     92  CB        27.7560   19.5460   -0.1920 C.3   106  TYR106      0.0548
     93  CG        28.2520   18.3190   -0.9520 C.ar  106  TYR106     -0.0200
     94  CD1       28.5170   17.1180   -0.2890 C.ar  106  TYR106     -0.0009
     95  CD2       28.4080   18.3430   -2.3430 C.ar  106  TYR106     -0.0009
     96  CE1       28.9430   15.9850   -0.9830 C.ar  106  TYR106      0.0417
     97  CE2       28.8440   17.2170   -3.0460 C.ar  106  TYR106      0.0417
     98  CZ        29.1230   16.0390   -2.3570 C.ar  106  TYR106      0.1957
     99  OH        29.5700   14.9070   -3.0150 O.3   106  TYR106     -0.2866
    100  N         30.1880   21.6090   -0.8380 N.am  107  ILE107     -0.1966
    101  CA        31.2520   21.7910   -1.8480 C.3   107  ILE107      0.1727
    102  C         32.5930   22.1500   -1.1880 C.2   107  ILE107      0.2617
    103  O         33.6340   22.2260   -1.8560 O.2   107  ILE107     -0.2715
    104  CB        30.9190   22.8790   -2.9330 C.3   107  ILE107      0.0290
    105  CG1       31.3340   24.2740   -2.4420 C.3   107  ILE107      0.0022
    106  CG2       29.4720   22.8420   -3.3640 C.3   107  ILE107      0.0023
    107  CD1       30.4950   25.4510   -2.8600 C.3   107  ILE107      0.0001
    108  N         32.5620   22.4190    0.1120 N.am  108  THR108     -0.1937
    109  CA        33.7940   22.5840    0.8540 C.3   108  THR108      0.2028
    110  C         34.2450   21.3030    1.5220 C.2   108  THR108      0.2642
    111  O         35.2800   21.2970    2.1800 O.2   108  THR108     -0.2714
    112  CB        33.5830   23.5840    1.9500 C.3   108  THR108      0.1808
    113  OG1       32.5260   23.0960    2.7820 O.3   108  THR108     -0.2208
    114  CG2       33.1250   24.9200    1.3620 C.3   108  THR108      0.0379
    115  N         33.4690   20.2350    1.3590 N.am  109  ASP109     -0.1971
    116  CA        33.8340   18.9420    1.9190 C.3   109  ASP109      0.1709
    117  C         33.5380   19.0240    3.4110 C.2   109  ASP109      0.2293
    118  O         34.3300   18.6190    4.2560 O.2   109  ASP109     -0.2864
    119  CB        35.3210   18.6760    1.6610 C.3   109  ASP109      0.1436
    120  CG        35.7030   17.2280    1.8560 C.2   109  ASP109      0.3671
    121  OD1       36.2910   16.9010    2.9170 O.co2 109  ASP109     -0.2456
    122  OD2       35.4640   16.3580    0.9960 O.co2 109  ASP109     -0.2456
    123  N         33.6330   21.2810    5.6990 N.3   111  THR111     -0.1203
    124  CA        34.5830   21.8090    6.6620 C.3   111  THR111      0.1994
    125  C         33.9780   22.9140    7.5250 C.2   111  THR111      0.2617
    126  O         34.4360   23.1950    8.6540 O.2   111  THR111     -0.2717
    127  CB        35.8830   22.3260    6.0480 C.3   111  THR111      0.1784
    128  OG1       35.9090   23.7520    6.1810 O.3   111  THR111     -0.2211
    129  CG2       35.9880   22.0660    4.5910 C.3   111  THR111      0.0376
    130  N         32.9870   23.5940    6.9710 N.am  112  TYR112     -0.1975
    131  CA        32.2900   24.5990    7.7600 C.3   112  TYR112      0.1639
    132  C         30.8780   24.1310    7.9680 C.2   112  TYR112      0.2290
    133  O         30.3170   23.4090    7.1440 O.2   112  TYR112     -0.2864
    134  CB        32.3090   25.9500    7.0700 C.3   112  TYR112      0.0560
    135  CG        33.6710   26.3940    6.6060 C.ar  112  TYR112     -0.0198
    136  CD1       34.6150   26.8040    7.5190 C.ar  112  TYR112     -0.0009
    137  CD2       33.9720   26.5150    5.2530 C.ar  112  TYR112     -0.0009
    138  CE1       35.8410   27.2640    7.1140 C.ar  112  TYR112      0.0417
    139  CE2       35.2020   26.9670    4.8360 C.ar  112  TYR112      0.0417
    140  CZ        36.1480   27.2940    5.7780 C.ar  112  TYR112      0.1957
    141  OH        37.3700   27.8130    5.4280 O.3   112  TYR112     -0.2866
@<TRIPOS>BOND
     1    31    30   ar
     2    50    49    2
     3    48    47    1
     4    48    49    1
     5    48    51    1
     6    52    53    1
     7    52    51    1
     8    30    32   ar
     9    30    29    1
    10    54    53   ar
    11    53    55   ar
    12    28    27    2
    13    29    26    1
    14    26    27    1
    15    26    25    1
    16    27    33   am
    17    33    34    1
    18    36    35    2
    19    35    34    1
    20    34    37    1
    21     9    10    1
    22    12    11    2
    23    37    38    1
    24    20    19    2
    25    10    11    1
    26    10    13    1
    27    19    18    1
    28    11    17   am
    29    39    38   ar
    30    39    41   ar
    31    38    40   ar
    32    14    13    1
    33    14    16    1
    34    17    18    1
    35    41    42   ar
    36    13    15    1
    37    18    21    1
    38    40    42   ar
    39    40    43   ar
    40    42    44   ar
    41    43    45   ar
    42   106   104    1
    43    21    22    1
    44    97    98   ar
    45    97    95   ar
    46    99    98    1
    47     1     2    1
    48   104   105    1
    49   104   101    1
    50   107   105    1
    51     3     4    2
    52     3     2    1
    53    44    46   ar
    54    22    24    1
    55    22    23    1
    56    45    46   ar
    57    98    96   ar
    58    95    93   ar
    59     2     5    1
    60   103   102    2
    61   101   102    1
    62   101   100    1
    63   102   108   am
    64    96    94   ar
    65    93    94   ar
    66    93    92    1
    67   100    90   am
    68     5     6    1
    69    92    89    1
    70    90    91    2
    71    90    89    1
    72     6     7    1
    73    87    85   am
    74   108   109    1
    75    78    76    1
    76    89    88    1
    77    84    85    1
    78    84    83    1
    79    85    86    2
    80   109   110    1
    81   109   112    1
    82   122   120   ar
    83    76    77    1
    84    76    75    1
    85   115   110   am
    86   115   116    1
    87   114   112    1
    88    82    81    2
    89   110   111    2
    90   119   120    1
    91   119   116    1
    92    80    83    1
    93    80    81    1
    94    80    79    1
    95    74    73    2
    96     7     8    1
    97   120   121   ar
    98   116   117    1
    99   112   113    1
   100    73    79   am
   101    73    72    1
   102    75    72    1
   103    72    71    1
   104   117   118    2
   105    66    64    1
   106   129   127    1
   107   139   137   ar
   108   139   140   ar
   109    59    58    2
   110    64    63    2
   111    64    65    1
   112    60    57    1
   113    60    61    1
   114   137   135   ar
   115    63    62    1
   116   141   140    1
   117    57    58    1
   118    57    56    1
   119   123   124    1
   120   140   138   ar
   121    58    67   am
   122   127   128    1
   123   127   124    1
   124    61    62    1
   125   135   134    1
   126   135   136   ar
   127   124   125    1
   128   130   125   am
   129   130   131    1
   130   134   131    1
   131    67    68    1
   132   138   136   ar
   133    69    70    2
   134    69    68    1
   135   133   132    2
   136   125   126    2
   137   131   132    1
