@<TRIPOS>MOLECULE
tmp/1urdA00.pdb
 183 177 0 0 0
SMALL
GASTEIGER

@<TRIPOS>ATOM
      1  N          2.4380   12.2550   37.9500 N.3     8  TRP8       -0.1227
      2  CA         3.0120   11.1840   37.1540 C.3     8  TRP8        0.1737
      3  C          1.9360   10.1570   36.8310 C.2     8  TRP8        0.2595
      4  O          2.2150    9.0960   36.2750 O.2     8  TRP8       -0.2718
      5  CB         4.1930   10.5450   37.8800 C.3     8  TRP8        0.0564
      6  CG         5.5090   11.0890   37.4040 C.ar    8  TRP8        0.0003
      7  CD1        6.2940   10.5770   36.4080 C.ar    8  TRP8        0.0946
      8  CD2        6.1870   12.2500   37.8910 C.ar    8  TRP8        0.0152
      9  NE1        7.4210   11.3440   36.2500 N.ar    8  TRP8       -0.2442
     10  CE2        7.3820   12.3790   37.1460 C.ar    8  TRP8        0.0810
     11  CE3        5.9020   13.1980   38.8840 C.ar    8  TRP8        0.0012
     12  CZ2        8.2950   13.4140   37.3660 C.ar    8  TRP8        0.0191
     13  CZ3        6.8120   14.2300   39.1010 C.ar    8  TRP8        0.0001
     14  CH2        7.9940   14.3260   38.3430 C.ar    8  TRP8        0.0015
     15  N          0.6990   10.4820   37.1940 N.am    9  GLN9       -0.1965
     16  CA        -0.4320    9.6220   36.8830 C.3     9  GLN9        0.1733
     17  C         -1.1490   10.3790   35.7710 C.2     9  GLN9        0.2617
     18  O         -1.2780   11.6020   35.8290 O.2     9  GLN9       -0.2715
     19  CB        -1.3410    9.4410   38.1030 C.3     9  GLN9        0.0408
     20  CG        -0.6870    8.6790   39.2510 C.3     9  GLN9        0.0908
     21  CD        -0.0940    7.3510   38.8070 C.2     9  GLN9        0.2608
     22  OE1       -0.7950    6.4950   38.2650 O.2     9  GLN9       -0.2717
     23  NE2        1.2040    7.1740   39.0350 N.am    9  GLN9       -0.0878
     24  N         -1.5900    9.6620   34.7460 N.am   10  THR10      -0.1951
     25  CA        -2.2540   10.2990   33.6170 C.3    10  THR10       0.1897
     26  C         -3.6460    9.7120   33.3980 C.2    10  THR10       0.2313
     27  O         -4.1700    9.0140   34.2620 O.2    10  THR10      -0.2863
     28  CB        -1.3980   10.1220   32.3430 C.3    10  THR10       0.1794
     29  OG1       -1.9650   10.8700   31.2620 O.3    10  THR10      -0.2208
     30  CG2       -1.3180    8.6500   31.9600 C.3    10  THR10       0.0378
     31  N          3.9050   12.1870   33.1950 N.3    38  SER38      -0.1217
     32  CA         3.9260   10.7490   32.9300 C.3    38  SER38       0.1889
     33  C          4.7620   10.3200   31.7310 C.2    38  SER38       0.2288
     34  O          5.3360    9.2280   31.7310 O.2    38  SER38      -0.2866
     35  CB         2.4980   10.2230   32.7620 C.3    38  SER38       0.2089
     36  OG         1.8900   10.7650   31.6050 O.3    38  SER38      -0.2183
     37  N         10.6150    9.3280   36.3840 N.3    44  PHE44      -0.1241
     38  CA        10.2720    9.6940   37.7520 C.3    44  PHE44       0.1605
     39  C         11.3370   10.5570   38.4000 C.2    44  PHE44       0.2264
     40  O         11.0200   11.4950   39.1320 O.2    44  PHE44      -0.2867
     41  CB        10.0690    8.4340   38.5900 C.3    44  PHE44       0.0534
     42  CG         8.9570    7.5580   38.0980 C.ar   44  PHE44      -0.0203
     43  CD1        9.2200    6.2740   37.6370 C.ar   44  PHE44      -0.0042
     44  CD2        7.6450    8.0170   38.0940 C.ar   44  PHE44      -0.0042
     45  CE1        8.1880    5.4560   37.1770 C.ar   44  PHE44      -0.0003
     46  CE2        6.6070    7.2080   37.6380 C.ar   44  PHE44      -0.0003
     47  CZ         6.8780    5.9260   37.1800 C.ar   44  PHE44      -0.0000
     48  N          5.8570    6.8450   42.5230 N.3    64  PRO64      -0.2116
     49  CA         6.0770    5.5360   43.1600 C.3    64  PRO64       0.1372
     50  C          7.0850    5.7520   44.2920 C.2    64  PRO64       0.2244
     51  O          8.1030    6.4190   44.1020 O.2    64  PRO64      -0.2868
     52  CB         6.6410    4.6930   42.0290 C.3    64  PRO64       0.0268
     53  CG         5.9110    5.2310   40.8220 C.3    64  PRO64       0.0207
     54  CD         5.9140    6.7390   41.0510 C.3    64  PRO64       0.0892
     55  N          9.5490    4.1730   45.7430 N.3    66  ASP66      -0.1225
     56  CA        10.9700    3.8570   45.7070 C.3    66  ASP66       0.1805
     57  C         11.8330    5.0660   45.3590 C.2    66  ASP66       0.2597
     58  O         12.9630    5.1750   45.8120 O.2    66  ASP66      -0.2718
     59  CB        11.2410    2.7240   44.7070 C.3    66  ASP66       0.1424
     60  CG        10.8760    3.1030   43.2900 C.2    66  ASP66       0.3668
     61  OD1        9.6720    3.3360   43.0330 O.co2  66  ASP66      -0.2456
     62  OD2       11.7890    3.1710   42.4360 O.co2  66  ASP66      -0.2456
     63  N         11.2920    5.9770   44.5580 N.am   67  ASN67      -0.1974
     64  CA        12.0260    7.1620   44.1270 C.3    67  ASN67       0.1688
     65  C         12.3030    8.1870   45.2120 C.2    67  ASN67       0.2292
     66  O         13.2520    8.9740   45.1100 O.2    67  ASN67      -0.2864
     67  CB        11.2570    7.8460   42.9980 C.3    67  ASN67       0.1181
     68  CG        11.2560    7.0260   41.7280 C.2    67  ASN67       0.2629
     69  OD1       12.2370    7.0040   41.0010 O.2    67  ASN67      -0.2716
     70  ND2       10.1620    6.3220   41.4760 N.am   67  ASN67      -0.0877
     71  N         -0.1410   -0.7260   44.7850 N.3   112  GLN112     -0.1245
     72  CA        -0.1400   -1.4770   43.5340 C.3   112  GLN112      0.1566
     73  C          0.6680   -2.7570   43.5900 C.2   112  GLN112      0.2260
     74  O          1.7410   -2.7970   44.1880 O.2   112  GLN112     -0.2867
     75  CB         0.4680   -0.6260   42.4130 C.3   112  GLN112      0.0367
     76  CG        -0.2230    0.6970   42.1250 C.3   112  GLN112      0.0905
     77  CD         0.4810    1.5050   41.0390 C.2   112  GLN112      0.2608
     78  OE1       -0.1550    2.2930   40.3400 O.2   112  GLN112     -0.2717
     79  NE2        1.7990    1.3260   40.9070 N.am  112  GLN112     -0.0878
     80  N          6.6250   -7.0680   29.8770 N.3   145  ASP145     -0.1239
     81  CA         7.8660   -6.2950   29.9200 C.3   145  ASP145      0.1674
     82  C          8.8990   -7.1890   30.6060 C.2   145  ASP145      0.2266
     83  O          9.3630   -6.9120   31.7120 O.2   145  ASP145     -0.2867
     84  CB         7.6180   -5.0220   30.7320 C.3   145  ASP145      0.1410
     85  CG         8.5490   -3.8910   30.3570 C.2   145  ASP145      0.3668
     86  OD1        9.3810   -4.0710   29.4410 O.co2 145  ASP145     -0.2456
     87  OD2        8.4380   -2.8110   30.9790 O.co2 145  ASP145     -0.2456
     88  N         12.2060   -5.9350   32.3000 N.3   148  ASN148     -0.1240
     89  CA        12.0290   -4.8810   33.2980 C.3   148  ASN148      0.1653
     90  C         11.9970   -5.5330   34.6790 C.2   148  ASN148      0.2266
     91  O         11.0690   -6.2710   34.9930 O.2   148  ASN148     -0.2867
     92  CB        10.7070   -4.1530   33.0410 C.3   148  ASN148      0.1155
     93  CG        10.5270   -2.9300   33.9220 C.2   148  ASN148      0.2627
     94  OD1       11.1370   -2.8190   34.9850 O.2   148  ASN148     -0.2716
     95  ND2        9.6700   -2.0180   33.4890 N.am  148  ASN148     -0.0877
     96  N         11.1440   -4.4970   37.4610 N.3   150  TYR150     -0.1227
     97  CA         9.9260   -4.2550   38.2320 C.3   150  TYR150      0.1736
     98  C          8.9210   -5.3910   38.0640 C.2   150  TYR150      0.2595
     99  O          8.2450   -5.7770   39.0130 O.2   150  TYR150     -0.2718
    100  CB         9.2700   -2.9420   37.8200 C.3   150  TYR150      0.0548
    101  CG         7.9650   -2.6950   38.5410 C.ar  150  TYR150     -0.0200
    102  CD1        7.9450   -2.2740   39.8780 C.ar  150  TYR150     -0.0009
    103  CD2        6.7470   -2.9020   37.8970 C.ar  150  TYR150     -0.0009
    104  CE1        6.7390   -2.0630   40.5460 C.ar  150  TYR150      0.0417
    105  CE2        5.5400   -2.6990   38.5540 C.ar  150  TYR150      0.0417
    106  CZ         5.5370   -2.2790   39.8740 C.ar  150  TYR150      0.1957
    107  OH         4.3300   -2.0710   40.5040 O.3   150  TYR150     -0.2866
    108  N          8.8120   -5.9230   36.8510 N.am  151  PHE151     -0.1976
    109  CA         7.8780   -7.0060   36.5960 C.3   151  PHE151      0.1639
    110  C          8.4740   -8.3990   36.7640 C.2   151  PHE151      0.2290
    111  O          7.8670   -9.2550   37.4090 O.2   151  PHE151     -0.2864
    112  CB         7.3020   -6.8810   35.1850 C.3   151  PHE151      0.0560
    113  CG         6.4510   -5.6690   34.9940 C.ar  151  PHE151     -0.0200
    114  CD1        5.1880   -5.6010   35.5680 C.ar  151  PHE151     -0.0042
    115  CD2        6.9290   -4.5690   34.2860 C.ar  151  PHE151     -0.0042
    116  CE1        4.4120   -4.4550   35.4470 C.ar  151  PHE151     -0.0003
    117  CE2        6.1570   -3.4130   34.1600 C.ar  151  PHE151     -0.0003
    118  CZ         4.8980   -3.3580   34.7430 C.ar  151  PHE151     -0.0000
    119  N         -2.7880    1.1740   35.7050 N.3   226  TRP226     -0.1241
    120  CA        -2.4050    2.2600   34.8110 C.3   226  TRP226      0.1605
    121  C         -2.8520    1.9790   33.3780 C.2   226  TRP226      0.2264
    122  O         -2.8490    2.8740   32.5330 O.2   226  TRP226     -0.2867
    123  CB        -0.8870    2.4730   34.8630 C.3   226  TRP226      0.0550
    124  CG        -0.0810    1.2150   34.7230 C.ar  226  TRP226      0.0003
    125  CD1        0.2800    0.5900   33.5610 C.ar  226  TRP226      0.0946
    126  CD2        0.4600    0.4230   35.7890 C.ar  226  TRP226      0.0152
    127  NE1        1.0160   -0.5410   33.8390 N.ar  226  TRP226     -0.2442
    128  CE2        1.1390   -0.6660   35.1990 C.ar  226  TRP226      0.0810
    129  CE3        0.4350    0.5300   37.1870 C.ar  226  TRP226      0.0012
    130  CZ2        1.7900   -1.6440   35.9590 C.ar  226  TRP226      0.0191
    131  CZ3        1.0810   -0.4440   37.9430 C.ar  226  TRP226      0.0001
    132  CH2        1.7500   -1.5160   37.3250 C.ar  226  TRP226      0.0015
    133  N          4.0080   -1.6360   45.3610 N.3   257  GLY257     -0.1225
    134  CA         4.3780   -0.2590   45.1090 C.3   257  GLY257      0.1811
    135  C          3.3670    0.6640   45.7560 C.2   257  GLY257      0.2280
    136  O          2.1680    0.3970   45.7340 O.2   257  GLY257     -0.2866
    137  N          1.9280    4.4720   45.6540 N.3   259  ILE259     -0.1245
    138  CA         1.9100    5.7170   44.8970 C.3   259  ILE259      0.1561
    139  C          1.7450    6.7990   45.9500 C.2   259  ILE259      0.2260
    140  O          0.8600    6.7190   46.7980 O.2   259  ILE259     -0.2867
    141  CB         0.7490    5.7520   43.8860 C.3   259  ILE259      0.0252
    142  CG1        0.9230    4.6290   42.8550 C.3   259  ILE259      0.0019
    143  CG2        0.6970    7.1110   43.2050 C.3   259  ILE259      0.0019
    144  CD1        2.2240    4.6750   42.0740 C.3   259  ILE259      0.0001
    145  N          8.9290   -2.3660   47.3480 N.3   327  MET327     -0.1245
    146  CA        10.1330   -1.9230   46.6570 C.3   327  MET327      0.1570
    147  C         11.0430   -1.1930   47.6370 C.2   327  MET327      0.2261
    148  O         10.5730   -0.4510   48.4920 O.2   327  MET327     -0.2867
    149  CB         9.7990   -0.9490   45.5220 C.3   327  MET327      0.0387
    150  CG         9.1850   -1.5530   44.2720 C.3   327  MET327      0.0595
    151  SD         9.0640   -0.3150   42.9660 S.3   327  MET327     -0.1393
    152  CE         7.6630    0.6430   43.5270 C.3   327  MET327      0.0692
    153  N         18.1360    2.9170   42.8750 N.3   334  GLN334     -0.1245
    154  CA        18.2570    3.4850   41.5360 C.3   334  GLN334      0.1566
    155  C         19.4170    2.8300   40.7880 C.2   334  GLN334      0.2260
    156  O         19.3950    2.7390   39.5610 O.2   334  GLN334     -0.2867
    157  CB        18.4510    5.0060   41.5930 C.3   334  GLN334      0.0367
    158  CG        17.3030    5.7630   42.2780 C.3   334  GLN334      0.0905
    159  CD        15.9110    5.3960   41.7490 C.2   334  GLN334      0.2608
    160  OE1       15.0210    5.0110   42.5160 O.2   334  GLN334     -0.2717
    161  NE2       15.7180    5.5250   40.4420 N.am  334  GLN334     -0.0878
    162  N         17.8780   -0.2830   39.2570 N.3   337  TRP337     -0.1241
    163  CA        17.0770   -0.0360   38.0590 C.3   337  TRP337      0.1605
    164  C         17.9920    0.2790   36.8820 C.2   337  TRP337      0.2264
    165  O         17.7330   -0.1350   35.7510 O.2   337  TRP337     -0.2867
    166  CB        16.1380    1.1590   38.2550 C.3   337  TRP337      0.0550
    167  CG        15.1150    1.0450   39.3600 C.ar  337  TRP337      0.0003
    168  CD1       14.8030    2.0140   40.2710 C.ar  337  TRP337      0.0946
    169  CD2       14.2020   -0.0360   39.6010 C.ar  337  TRP337      0.0152
    170  NE1       13.7540    1.6100   41.0580 N.ar  337  TRP337     -0.2442
    171  CE2       13.3630    0.3570   40.6700 C.ar  337  TRP337      0.0810
    172  CE3       14.0050   -1.2960   39.0170 C.ar  337  TRP337      0.0012
    173  CZ2       12.3440   -0.4630   41.1660 C.ar  337  TRP337      0.0191
    174  CZ3       12.9880   -2.1130   39.5160 C.ar  337  TRP337      0.0001
    175  CH2       12.1710   -1.6910   40.5800 C.ar  337  TRP337      0.0015
    176  N         19.7600   -3.0090   35.4720 N.3   340  MET340     -0.1245
    177  CA        18.9090   -4.1080   35.0190 C.3   340  MET340      0.1570
    178  C         18.8960   -4.3490   33.5120 C.2   340  MET340      0.2261
    179  O         18.3410   -5.3450   33.0500 O.2   340  MET340     -0.2867
    180  CB        17.4760   -3.8930   35.5080 C.3   340  MET340      0.0387
    181  CG        16.7350   -2.7920   34.7810 C.3   340  MET340      0.0595
    182  SD        15.0710   -2.5730   35.4200 S.3   340  MET340     -0.1393
    183  CE        14.4920   -1.2600   34.3830 C.3   340  MET340      0.0692
@<TRIPOS>BOND
     1    86    85   ar
     2    80    81    1
     3    81    82    1
     4    81    84    1
     5    85    84    1
     6    85    87   ar
     7    82    83    2
     8    29    28    1
     9    36    35    1
    10    34    33    2
    11    33    32    1
    12    30    28    1
    13    88    89    1
    14    28    25    1
    15   122   121    2
    16    35    32    1
    17    32    31    1
    18    92    89    1
    19    92    93    1
    20   179   178    2
    21    89    90    1
    22   121   120    1
    23    26    25    1
    24    26    27    2
    25    95    93   am
    26   178   177    1
    27   125   127   ar
    28   125   124   ar
    29    25    24    1
    30   127   128   ar
    31    93    94    2
    32   117   115   ar
    33   117   118   ar
    34   115   113   ar
    35   183   182    1
    36    90    91    2
    37   124   123    1
    38   124   126   ar
    39   118   116   ar
    40    24    17   am
    41   181   182    1
    42   181   180    1
    43   120   123    1
    44   120   119    1
    45   113   112    1
    46   113   114   ar
    47   177   176    1
    48   177   180    1
    49   112   109    1
    50   128   126   ar
    51   128   130   ar
    52   116   114   ar
    53   165   164    2
    54    17    18    2
    55    17    16    1
    56   126   129   ar
    57   130   132   ar
    58     9     7   ar
    59     9    10   ar
    60     4     3    2
    61    37    38    1
    62     7     6   ar
    63   109   110    1
    64   109   108    1
    65   110   111    2
    66     3     2    1
    67     3    15   am
    68   108    98   am
    69   164   163    1
    70    16    15    1
    71    16    19    1
    72    10    12   ar
    73    10     8   ar
    74     2     5    1
    75     2     1    1
    76    45    47   ar
    77    45    43   ar
    78    47    46   ar
    79   129   131   ar
    80   132   131   ar
    81    12    14   ar
    82     6     5    1
    83     6     8   ar
    84    96    97    1
    85    43    42   ar
    86    46    44   ar
    87    38    39    1
    88    38    41    1
    89   100    97    1
    90   100   101    1
    91     8    11   ar
    92   103   101   ar
    93   103   105   ar
    94   163   166    1
    95   163   162    1
    96    98    97    1
    97    98    99    2
    98    44    42   ar
    99    42    41    1
   100    19    20    1
   101   166   167    1
   102    22    21    2
   103    14    13   ar
   104    39    40    2
   105   101   102   ar
   106   105   106   ar
   107    21    23   am
   108    21    20    1
   109    11    13   ar
   110   172   174   ar
   111   172   169   ar
   112   167   169   ar
   113   167   168   ar
   114   174   175   ar
   115   156   155    2
   116   169   171   ar
   117   106   107    1
   118   106   104   ar
   119   102   104   ar
   120   168   170   ar
   121    78    77    2
   122   161   159   am
   123   175   173   ar
   124   171   170   ar
   125   171   173   ar
   126   155   154    1
   127    53    54    1
   128    53    52    1
   129    79    77   am
   130    69    68    2
   131    77    76    1
   132    54    48    1
   133    70    68   am
   134   154   157    1
   135   154   153    1
   136   157   158    1
   137    68    67    1
   138   159   158    1
   139   159   160    2
   140    52    49    1
   141   144   142    1
   142    76    75    1
   143    75    72    1
   144    62    60   ar
   145    48    49    1
   146   142   141    1
   147   151   152    1
   148   151   150    1
   149    67    64    1
   150    61    60   ar
   151    49    50    1
   152   143   141    1
   153    60    59    1
   154    72    73    1
   155    72    71    1
   156    73    74    2
   157   141   138    1
   158    51    50    2
   159    64    63    1
   160    64    65    1
   161   150   149    1
   162    63    57   am
   163    59    56    1
   164   138   137    1
   165   138   139    1
   166   134   133    1
   167   134   135    1
   168    66    65    2
   169    57    56    1
   170    57    58    2
   171   149   146    1
   172    56    55    1
   173   136   135    2
   174   139   140    2
   175   146   145    1
   176   146   147    1
   177   147   148    2
