@<TRIPOS>MOLECULE
tmp/1ureA00.pdb
 237 221 0 0 0
SMALL
GASTEIGER

@<TRIPOS>ATOM
      1  N         18.8540   18.1680   18.9610 N.3    14  TYR14      -0.1241
      2  CA        19.9110   17.5070   18.2230 C.3    14  TYR14       0.1605
      3  C         21.3210   17.8830   18.6720 C.2    14  TYR14       0.2264
      4  O         22.2010   17.0250   18.5020 O.2    14  TYR14      -0.2867
      5  CB        19.7640   17.5380   16.6960 C.3    14  TYR14       0.0534
      6  CG        20.9740   17.0090   15.9410 C.ar   14  TYR14      -0.0201
      7  CD1       21.1880   15.6330   15.7380 C.ar   14  TYR14      -0.0009
      8  CD2       21.9060   17.8900   15.4370 C.ar   14  TYR14      -0.0009
      9  CE1       22.3020   15.1910   15.0450 C.ar   14  TYR14       0.0417
     10  CE2       23.0400   17.4530   14.7310 C.ar   14  TYR14       0.0417
     11  CZ        23.2520   16.0860   14.5270 C.ar   14  TYR14       0.1957
     12  OH        24.3650   15.6750   13.8450 O.3    14  TYR14      -0.2866
     13  N         24.4150   14.8660   20.4380 N.3    18  MET18      -0.1245
     14  CA        25.7450   14.6210   19.9560 C.3    18  MET18       0.1570
     15  C         26.6760   14.6220   21.1520 C.2    18  MET18       0.2261
     16  O         27.7450   14.0330   21.1860 O.2    18  MET18      -0.2867
     17  CB        26.1080   15.6980   18.9150 C.3    18  MET18       0.0387
     18  CG        25.2280   15.6900   17.6800 C.3    18  MET18       0.0595
     19  SD        24.2370   14.1840   17.4080 S.3    18  MET18      -0.1393
     20  CE        25.0960   13.4200   16.0100 C.3    18  MET18       0.0692
     21  N         26.5620   10.9620   22.3210 N.3    21  MET21      -0.1245
     22  CA        27.2990   10.0580   21.4760 C.3    21  MET21       0.1570
     23  C         28.7910   10.2660   21.7680 C.2    21  MET21       0.2261
     24  O         29.5860    9.4040   21.4790 O.2    21  MET21      -0.2867
     25  CB        27.0150   10.3680   20.0110 C.3    21  MET21       0.0387
     26  CG        26.0950    9.4060   19.2570 C.3    21  MET21       0.0595
     27  SD        26.0610    9.7250   17.4940 S.3    21  MET21      -0.1393
     28  CE        25.2060    8.2080   16.9610 C.3    21  MET21       0.0692
     29  N         30.3170   13.4920   21.0220 N.3    23  ILE23      -0.1245
     30  CA        30.6960   14.4580   20.0050 C.3    23  ILE23       0.1561
     31  C         31.0090   15.7650   20.7570 C.2    23  ILE23       0.2260
     32  O         30.1910   16.1120   21.6000 O.2    23  ILE23      -0.2867
     33  CB        29.5800   14.6440   19.0210 C.3    23  ILE23       0.0252
     34  CG1       28.8390   13.3500   18.7630 C.3    23  ILE23       0.0019
     35  CG2       30.0660   15.3120   17.7100 C.3    23  ILE23       0.0019
     36  CD1       28.9860   12.8280   17.3190 C.3    23  ILE23       0.0001
     37  N         32.2580   18.2470   15.2250 N.3    27  LYS27      -0.1245
     38  CA        31.4990   17.0680   14.8210 C.3    27  LYS27       0.1561
     39  C         30.0080   17.2020   15.0030 C.2    27  LYS27       0.2260
     40  O         29.2680   16.7880   14.1130 O.2    27  LYS27      -0.2867
     41  CB        32.0810   15.8390   15.5070 C.3    27  LYS27       0.0271
     42  CG        33.5010   15.6650   15.0200 C.3    27  LYS27       0.0035
     43  CD        33.7410   14.4150   14.2100 C.3    27  LYS27       0.0206
     44  CE        33.9000   14.6850   12.7140 C.3    27  LYS27       0.1093
     45  NZ        32.6470   14.5900   11.9330 N.3    27  LYS27      -0.1314
     46  N         27.3460   17.9840   11.9840 N.3    31  GLY31      -0.1225
     47  CA        26.2320   17.0610   11.8870 C.3    31  GLY31       0.1811
     48  C         24.9110   17.8120   11.7770 C.2    31  GLY31       0.2280
     49  O         23.9370   17.3710   11.1640 O.2    31  GLY31      -0.2866
     50  N         24.8330   19.9930    8.4270 N.3    34  ASP34      -0.1239
     51  CA        24.9790   19.0470    7.3340 C.3    34  ASP34       0.1674
     52  C         24.1500   19.2010    6.1000 C.2    34  ASP34       0.2266
     53  O         24.6470   18.9350    5.0320 O.2    34  ASP34      -0.2867
     54  CB        24.7060   17.5970    7.8290 C.3    34  ASP34       0.1410
     55  CG        23.3290   17.3190    8.3760 C.2    34  ASP34       0.3668
     56  OD1       22.6360   18.3350    8.7570 O.co2  34  ASP34      -0.2456
     57  OD2       22.9090   16.1900    8.4360 O.co2  34  ASP34      -0.2456
     58  N         21.4190   17.4740    5.4240 N.3    36  LEU36      -0.1245
     59  CA        20.9040   16.1310    5.2090 C.3    36  LEU36       0.1561
     60  C         19.7020   16.1700    4.2890 C.2    36  LEU36       0.2260
     61  O         18.6100   16.3610    4.8030 O.2    36  LEU36      -0.2867
     62  CB        20.4240   15.4020    6.4790 C.3    36  LEU36       0.0270
     63  CG        19.7320   14.0710    6.1950 C.3    36  LEU36       0.0019
     64  CD1       20.7110   12.9770    5.7530 C.3    36  LEU36       0.0001
     65  CD2       19.0150   13.6660    7.4680 C.3    36  LEU36       0.0001
     66  N         17.4410   14.0760    2.4180 N.3    38  LEU38      -0.1245
     67  CA        17.1830   12.6590    2.2750 C.3    38  LEU38       0.1561
     68  C         16.2890   12.4430    1.0510 C.2    38  LEU38       0.2260
     69  O         15.2550   13.0680    0.9830 O.2    38  LEU38      -0.2867
     70  CB        16.3460   12.2600    3.5010 C.3    38  LEU38       0.0270
     71  CG        16.7530   11.0950    4.3450 C.3    38  LEU38       0.0019
     72  CD1       18.0160   11.1950    5.1780 C.3    38  LEU38       0.0001
     73  CD2       15.5660   10.6870    5.1960 C.3    38  LEU38       0.0001
     74  N         17.7200    5.3740    1.3800 N.3    49  VAL49      -0.1245
     75  CA        17.8890    6.6250    2.0400 C.3    49  VAL49       0.1561
     76  C         19.0300    7.4180    1.4280 C.2    49  VAL49       0.2260
     77  O         20.1180    7.3250    1.9960 O.2    49  VAL49      -0.2867
     78  CB        17.5310    6.7420    3.5180 C.3    49  VAL49       0.0252
     79  CG1       17.1820    5.4240    4.1870 C.3    49  VAL49       0.0019
     80  CG2       18.5550    7.5280    4.3080 C.3    49  VAL49       0.0019
     81  N         21.4320   10.2270    1.1210 N.3    51  GLU51      -0.1245
     82  CA        21.7810   11.1430    2.1890 C.3    51  GLU51       0.1567
     83  C         22.8360   12.0770    1.6190 C.2    51  GLU51       0.2260
     84  O         24.0110   11.7610    1.6430 O.2    51  GLU51      -0.2867
     85  CB        22.4490   10.3340    3.3420 C.3    51  GLU51       0.0388
     86  CG        23.0800   11.2510    4.3980 C.3    51  GLU51       0.1160
     87  CD        22.8750   10.8160    5.8330 C.2    51  GLU51       0.3649
     88  OE1       22.5710    9.5480    5.9770 O.co2  51  GLU51      -0.2457
     89  OE2       22.9860   11.5690    6.7720 O.co2  51  GLU51      -0.2457
     90  N         24.4130   14.4340    2.7770 N.3    53  SER53      -0.1217
     91  CA        24.8270   15.2930    3.8790 C.3    53  SER53       0.1889
     92  C         26.2680   15.7510    3.7470 C.2    53  SER53       0.2288
     93  O         26.9250   15.4070    2.7650 O.2    53  SER53      -0.2866
     94  CB        24.5870   14.6540    5.2450 C.3    53  SER53       0.2089
     95  OG        25.7060   13.9450    5.7340 O.3    53  SER53      -0.2183
     96  N         28.7250   14.6370    5.2330 N.3    55  PHE55      -0.1241
     97  CA        29.6800   13.5350    5.1770 C.3    55  PHE55       0.1605
     98  C         29.8140   12.8950    3.7980 C.2    55  PHE55       0.2264
     99  O         30.9470   12.7740    3.3580 O.2    55  PHE55      -0.2867
    100  CB        29.4400   12.4250    6.2200 C.3    55  PHE55       0.0534
    101  CG        29.6840   12.9600    7.6070 C.ar   55  PHE55      -0.0203
    102  CD1       28.6430   13.5630    8.3150 C.ar   55  PHE55      -0.0042
    103  CD2       30.9450   12.8720    8.1910 C.ar   55  PHE55      -0.0042
    104  CE1       28.9050   14.0600    9.6030 C.ar   55  PHE55      -0.0003
    105  CE2       31.2380   13.3570    9.4730 C.ar   55  PHE55      -0.0003
    106  CZ        30.1800   13.9520   10.1530 C.ar   55  PHE55      -0.0000
    107  N         21.4860    4.9010    1.9480 N.3    60  VAL60      -0.1245
    108  CA        21.5980    4.0220    3.1080 C.3    60  VAL60       0.1561
    109  C         20.9380    2.6820    2.8370 C.2    60  VAL60       0.2260
    110  O         21.5310    1.5950    2.7200 O.2    60  VAL60      -0.2867
    111  CB        20.9790    4.6680    4.3570 C.3    60  VAL60       0.0252
    112  CG1       20.7120    3.6260    5.4590 C.3    60  VAL60       0.0019
    113  CG2       21.7950    5.8600    4.8560 C.3    60  VAL60       0.0019
    114  N         17.4820    0.2990    4.0330 N.3    62  PHE62      -0.1241
    115  CA        17.2930   -0.5600    5.1730 C.3    62  PHE62       0.1605
    116  C         15.9160   -1.2550    5.1240 C.2    62  PHE62       0.2264
    117  O         14.9330   -0.6080    5.4910 O.2    62  PHE62      -0.2867
    118  CB        17.5910    0.2100    6.4650 C.3    62  PHE62       0.0534
    119  CG        17.1250    1.6470    6.5190 C.ar   62  PHE62      -0.0203
    120  CD1       16.0590    2.1510    5.7840 C.ar   62  PHE62      -0.0042
    121  CD2       17.8020    2.5350    7.3620 C.ar   62  PHE62      -0.0042
    122  CE1       15.7210    3.5010    5.9250 C.ar   62  PHE62      -0.0003
    123  CE2       17.4740    3.8850    7.5010 C.ar   62  PHE62      -0.0003
    124  CZ        16.4060    4.3540    6.7590 C.ar   62  PHE62      -0.0000
    125  N         25.7780   -0.3690   10.3720 N.3    70  TYR70      -0.1241
    126  CA        26.0650    0.8430    9.6190 C.3    70  TYR70       0.1605
    127  C         27.1280    1.7060   10.3150 C.2    70  TYR70       0.2264
    128  O         26.8880    2.1880   11.3980 O.2    70  TYR70      -0.2867
    129  CB        24.7260    1.6090    9.4150 C.3    70  TYR70       0.0534
    130  CG        24.7970    2.8370    8.5290 C.ar   70  TYR70      -0.0201
    131  CD1       25.4780    2.8170    7.3030 C.ar   70  TYR70      -0.0009
    132  CD2       24.1840    4.0510    8.8800 C.ar   70  TYR70      -0.0009
    133  CE1       25.5620    3.9300    6.4550 C.ar   70  TYR70       0.0417
    134  CE2       24.2370    5.1900    8.0720 C.ar   70  TYR70       0.0417
    135  CZ        24.9290    5.0860    6.8810 C.ar   70  TYR70       0.1957
    136  OH        24.9630    6.2250    6.1060 O.3    70  TYR70      -0.2866
    137  N         29.1530    4.9510   11.2710 N.3    72  LEU72      -0.1231
    138  CA        28.8750    6.3690   11.1540 C.3    72  LEU72       0.1693
    139  C         30.2090    7.0360   10.8680 C.2    72  LEU72       0.2592
    140  O         31.1930    6.3250   10.6810 O.2    72  LEU72      -0.2718
    141  CB        28.3500    6.9420   12.4840 C.3    72  LEU72       0.0284
    142  CG        26.9160    6.5840   12.8640 C.3    72  LEU72       0.0019
    143  CD1       25.9920    7.7660   12.7960 C.3    72  LEU72       0.0001
    144  CD2       26.3800    5.5920   11.8470 C.3    72  LEU72       0.0001
    145  N         30.2040    8.3650   10.8410 N.am   73  ALA73      -0.1966
    146  CA        31.4320    9.1180   10.5880 C.3    73  ALA73       0.1728
    147  C         32.2370    9.3070   11.8950 C.2    73  ALA73       0.2616
    148  O         33.4190    9.0540   11.9600 O.2    73  ALA73      -0.2715
    149  CB        31.1210   10.3940    9.8610 C.3    73  ALA73       0.0334
    150  N         31.5210    9.7570   12.9080 N.am   74  ASP74      -0.1957
    151  CA        32.0920    9.9810   14.2170 C.3    74  ASP74       0.1840
    152  C         31.3460    9.1400   15.2570 C.2    74  ASP74       0.2622
    153  O         31.8060    9.0490   16.4020 O.2    74  ASP74      -0.2715
    154  CB        32.0560   11.4240   14.6760 C.3    74  ASP74       0.1450
    155  CG        33.2430   11.6900   15.5710 C.2    74  ASP74       0.3671
    156  OD1       34.3680   11.3570   15.2750 O.co2  74  ASP74      -0.2456
    157  OD2       32.8380   12.3080   16.6370 O.co2  74  ASP74      -0.2456
    158  N         30.2090    8.5210   14.8910 N.am   75  GLY75      -0.1954
    159  CA        29.4190    7.6920   15.7860 C.3    75  GLY75       0.1869
    160  C         29.8580    6.2100   15.7720 C.2    75  GLY75       0.2309
    161  O         29.5310    5.4740   16.6710 O.2    75  GLY75      -0.2863
    162  N         26.7500    1.0240   14.4590 N.3    78  LEU78      -0.1245
    163  CA        25.3550    1.2630   14.8370 C.3    78  LEU78       0.1561
    164  C         24.6150    0.1750   14.0920 C.2    78  LEU78       0.2260
    165  O         24.3800    0.3190   12.8800 O.2    78  LEU78      -0.2867
    166  CB        25.0470    2.5900   14.0780 C.3    78  LEU78       0.0270
    167  CG        23.6700    3.2130   14.0050 C.3    78  LEU78       0.0019
    168  CD1       23.5060    4.5170   14.7420 C.3    78  LEU78       0.0001
    169  CD2       23.4310    3.3810   12.5240 C.3    78  LEU78       0.0001
    170  N         14.8310   -0.7010   11.4520 N.3    82  TRP82      -0.1241
    171  CA        13.8210    0.3240   11.3680 C.3    82  TRP82       0.1605
    172  C         12.5580   -0.4910   11.1610 C.2    82  TRP82       0.2264
    173  O         12.5910   -1.4900   10.4460 O.2    82  TRP82      -0.2867
    174  CB        13.9850    1.2110   10.1250 C.3    82  TRP82       0.0550
    175  CG        15.1050    2.1510   10.2310 C.ar   82  TRP82       0.0003
    176  CD1       16.3700    1.9420    9.8790 C.ar   82  TRP82       0.0946
    177  CD2       15.0410    3.4880   10.7400 C.ar   82  TRP82       0.0152
    178  NE1       17.1500    3.0310   10.1160 N.ar   82  TRP82      -0.2442
    179  CE2       16.3570    4.0080   10.6480 C.ar   82  TRP82       0.0810
    180  CE3       14.0520    4.3130   11.2560 C.ar   82  TRP82       0.0012
    181  CZ2       16.7070    5.3050   11.0540 C.ar   82  TRP82       0.0191
    182  CZ3       14.4070    5.5880   11.6500 C.ar   82  TRP82       0.0001
    183  CH2       15.7030    6.1180   11.5620 C.ar   82  TRP82       0.0015
    184  N         18.8350    1.6100   16.8000 N.3    93  PHE93      -0.1241
    185  CA        20.2120    1.3510   16.4040 C.3    93  PHE93       0.1605
    186  C         21.0960    1.0830   17.5890 C.2    93  PHE93       0.2264
    187  O         21.3710    2.0150   18.3300 O.2    93  PHE93      -0.2867
    188  CB        20.7270    2.6640   15.7790 C.3    93  PHE93       0.0534
    189  CG        20.5100    2.7370   14.3050 C.ar   93  PHE93      -0.0203
    190  CD1       20.8250    1.6550   13.4980 C.ar   93  PHE93      -0.0042
    191  CD2       19.9890    3.9120   13.7680 C.ar   93  PHE93      -0.0042
    192  CE1       20.6370    1.6780   12.1140 C.ar   93  PHE93      -0.0003
    193  CE2       19.7950    3.9590   12.4000 C.ar   93  PHE93      -0.0003
    194  CZ        20.1160    2.8580   11.5940 C.ar   93  PHE93      -0.0000
    195  N         10.6150    8.5570   13.5980 N.3   106  ARG106     -0.1245
    196  CA        10.3020    9.2750   12.3770 C.3   106  ARG106      0.1563
    197  C          8.8240    9.5900   12.4360 C.2   106  ARG106      0.2260
    198  O          7.9900    8.7630   12.0400 O.2   106  ARG106     -0.2867
    199  CB        10.4280    8.3720   11.1770 C.3   106  ARG106      0.0307
    200  CG        11.8130    8.5140   10.5830 C.3   106  ARG106      0.0489
    201  CD        11.9940    7.5950    9.3860 C.3   106  ARG106      0.2205
    202  NE        13.2900    7.9360    8.8430 N.pl3 106  ARG106     -0.0865
    203  CZ        14.1950    7.0850    8.3580 C.cat 106  ARG106      0.5346
    204  NH1       14.0290    5.7450    8.3030 N.pl3 106  ARG106      0.1354
    205  NH2       15.3360    7.5320    7.9000 N.pl3 106  ARG106      0.1354
    206  N         12.8400   13.2150   12.6480 N.3   115  GLN115     -0.1245
    207  CA        13.4830   12.0160   13.1230 C.3   115  GLN115      0.1566
    208  C         14.1170   12.3300   14.4540 C.2   115  GLN115      0.2260
    209  O         15.1430   13.0080   14.4790 O.2   115  GLN115     -0.2867
    210  CB        14.6860   11.5680   12.2580 C.3   115  GLN115      0.0367
    211  CG        14.1890   11.1470   10.8810 C.3   115  GLN115      0.0905
    212  CD        15.2130   10.3630   10.0520 C.2   115  GLN115      0.2608
    213  OE1       15.1330    9.1180   10.1260 O.2   115  GLN115     -0.2717
    214  NE2       16.1050   11.0140    9.3130 N.am  115  GLN115     -0.0878
    215  N         15.8720   11.2190   18.0570 N.3   117  TYR117     -0.1241
    216  CA        17.0440   10.3700   18.2640 C.3   117  TYR117      0.1605
    217  C         17.4740   10.2990   19.6930 C.2   117  TYR117      0.2264
    218  O         17.9190   11.3040   20.1700 O.2   117  TYR117     -0.2867
    219  CB        18.3430   10.7200   17.5380 C.3   117  TYR117      0.0534
    220  CG        18.4080   10.6300   16.0220 C.ar  117  TYR117     -0.0201
    221  CD1       18.6890    9.4260   15.3990 C.ar  117  TYR117     -0.0009
    222  CD2       18.1850   11.7760   15.2310 C.ar  117  TYR117     -0.0009
    223  CE1       18.7470    9.3500   13.9990 C.ar  117  TYR117      0.0417
    224  CE2       18.2410   11.7190   13.8360 C.ar  117  TYR117      0.0417
    225  CZ        18.5210   10.4980   13.2630 C.ar  117  TYR117      0.1957
    226  OH        18.5750   10.4430   11.8980 O.3   117  TYR117     -0.2866
    227  N         15.0350   16.2290   14.2820 N.3   126  ARG126     -0.1245
    228  CA        15.5880   16.6810   13.0260 C.3   126  ARG126      0.1563
    229  C         14.4310   16.8600   12.0410 C.2   126  ARG126      0.2260
    230  O         14.1990   15.9780   11.2470 O.2   126  ARG126     -0.2867
    231  CB        16.7160   15.8450   12.4620 C.3   126  ARG126      0.0307
    232  CG        17.9560   15.9290   13.3390 C.3   126  ARG126      0.0489
    233  CD        19.2250   15.8350   12.5140 C.3   126  ARG126      0.2205
    234  NE        20.0490   14.6600   12.7470 N.pl3 126  ARG126     -0.0865
    235  CZ        20.4300   13.7620   11.8570 C.cat 126  ARG126      0.5346
    236  NH1       19.9130   13.9650   10.6090 N.pl3 126  ARG126      0.1354
    237  NH2       21.1010   12.6220   12.0320 N.pl3 126  ARG126      0.1354
@<TRIPOS>BOND
     1    69    68    2
     2    68    67    1
     3    81    82    1
     4    74    75    1
     5    76    77    2
     6    76    75    1
     7    83    84    2
     8    83    82    1
     9   107   108    1
    10    75    78    1
    11    82    85    1
    12    67    66    1
    13    67    70    1
    14   110   109    2
    15    93    92    2
    16    90    91    1
    17   109   108    1
    18   108   111    1
    19    85    86    1
    20    99    98    2
    21    70    71    1
    22    78    79    1
    23    78    80    1
    24    92    91    1
    25    98    97    1
    26    91    94    1
    27   114   115    1
    28    60    61    2
    29    60    59    1
    30    71    72    1
    31    71    73    1
    32   111   113    1
    33   111   112    1
    34    86    87    1
    35    53    52    2
    36   116   115    1
    37   116   117    2
    38   115   118    1
    39    97    96    1
    40    97   100    1
    41    59    58    1
    42    59    62    1
    43    94    95    1
    44    64    63    1
    45   120   122   ar
    46   120   119   ar
    47    87    88   ar
    48    87    89   ar
    49   122   124   ar
    50    52    51    1
    51   136   135    1
    52    63    62    1
    53    63    65    1
    54   100   101    1
    55   133   135   ar
    56   133   131   ar
    57   118   119    1
    58   119   121   ar
    59   124   123   ar
    60   135   134   ar
    61   131   130   ar
    62    51    54    1
    63    51    50    1
    64   121   123   ar
    65   101   103   ar
    66   101   102   ar
    67    54    55    1
    68   205   203    1
    69   134   132   ar
    70   103   105   ar
    71   204   203    1
    72   102   104   ar
    73   203   202    2
    74    55    57   ar
    75    55    56   ar
    76   130   132   ar
    77   130   129    1
    78   202   201    1
    79   214   212   am
    80   201   200    1
    81   129   126    1
    82   105   106   ar
    83   104   106   ar
    84   126   127    1
    85   126   125    1
    86   149   146    1
    87   176   178   ar
    88   176   175   ar
    89   212   213    2
    90   212   211    1
    91   178   179   ar
    92   174   175    1
    93   174   171    1
    94   175   177   ar
    95   127   128    2
    96   173   172    2
    97   200   199    1
    98   146   145    1
    99   146   147    1
   100   236   235    1
   101   179   177   ar
   102   179   181   ar
   103   140   139    2
   104   177   180   ar
   105   145   139   am
   106   139   138    1
   107   211   210    1
   108   181   183   ar
   109   138   137    1
   110   138   141    1
   111   172   171    1
   112    49    48    2
   113   199   196    1
   114   230   229    2
   115   180   182   ar
   116   171   170    1
   117   183   182   ar
   118   194   192   ar
   119   194   193   ar
   120    48    47    1
   121   144   142    1
   122   235   237    1
   123   235   234    2
   124    47    46    1
   125   147   148    2
   126   147   150   am
   127   226   225    1
   128    45    44    1
   129   198   197    2
   130   229   228    1
   131   192   190   ar
   132   210   207    1
   133   196   197    1
   134   196   195    1
   135   193   191   ar
   136   231   228    1
   137   231   232    1
   138   141   142    1
   139   233   234    1
   140   233   232    1
   141   169   167    1
   142   206   207    1
   143    44    43    1
   144   143   142    1
   145   165   164    2
   146   150   151    1
   147   228   227    1
   148   207   208    1
   149   225   224   ar
   150   225   223   ar
   151   190   189   ar
   152   191   189   ar
   153   224   222   ar
   154    12    11    1
   155   223   221   ar
   156   167   166    1
   157   167   168    1
   158   166   163    1
   159   164   163    1
   160    40    39    2
   161    43    42    1
   162   151   154    1
   163   151   152    1
   164   189   188    1
   165   208   209    2
   166   162   163    1
   167    11    10   ar
   168    11     9   ar
   169   154   155    1
   170    10     8   ar
   171    38    39    1
   172    38    37    1
   173    38    41    1
   174   158   152   am
   175   158   159    1
   176    42    41    1
   177     9     7   ar
   178   222   220   ar
   179   152   153    2
   180   156   155   ar
   181   221   220   ar
   182     8     6   ar
   183   155   157   ar
   184     7     6   ar
   185   160   159    1
   186   160   161    2
   187   188   185    1
   188     6     5    1
   189    20    19    1
   190   220   219    1
   191   185   184    1
   192   185   186    1
   193     5     2    1
   194    28    27    1
   195    36    34    1
   196    19    18    1
   197    27    26    1
   198   219   216    1
   199   186   187    2
   200    18    17    1
   201    35    33    1
   202   215   216    1
   203     2     3    1
   204     2     1    1
   205   216   217    1
   206     4     3    2
   207    34    33    1
   208    17    14    1
   209    33    30    1
   210    26    25    1
   211   217   218    2
   212    14    13    1
   213    14    15    1
   214    30    31    1
   215    30    29    1
   216    25    22    1
   217    31    32    2
   218    15    16    2
   219    22    23    1
   220    22    21    1
   221    24    23    2
