@<TRIPOS>MOLECULE
tmp/1urgA00.pdb
 156 149 0 0 0
SMALL
GASTEIGER

@<TRIPOS>ATOM
      1  N        -26.0350   -9.1750   39.8390 N.3     9  GLN9       -0.1245
      2  CA       -24.9070   -8.2960   39.5300 C.3     9  GLN9        0.1566
      3  C        -24.1480   -9.0390   38.4470 C.2     9  GLN9        0.2260
      4  O        -23.9520  -10.2520   38.5350 O.2     9  GLN9       -0.2867
      5  CB       -23.9960   -8.0750   40.7440 C.3     9  GLN9        0.0367
      6  CG       -24.6360   -7.2770   41.8650 C.3     9  GLN9        0.0905
      7  CD       -25.2210   -5.9590   41.3910 C.2     9  GLN9        0.2608
      8  OE1      -24.5200   -5.1400   40.7930 O.2     9  GLN9       -0.2717
      9  NE2      -26.5130   -5.7450   41.6590 N.am    9  GLN9       -0.0878
     10  N        -36.0550   -8.1220   39.1490 N.3    44  PHE44      -0.1241
     11  CA       -35.6770   -8.5670   40.4840 C.3    44  PHE44       0.1605
     12  C        -36.7270   -9.4600   41.1360 C.2    44  PHE44       0.2264
     13  O        -36.3940  -10.4220   41.8290 O.2    44  PHE44      -0.2867
     14  CB       -35.4070   -7.3540   41.3820 C.3    44  PHE44       0.0534
     15  CG       -34.3320   -6.4420   40.8600 C.ar   44  PHE44      -0.0203
     16  CD1      -34.6540   -5.1930   40.3420 C.ar   44  PHE44      -0.0042
     17  CD2      -32.9990   -6.8400   40.8780 C.ar   44  PHE44      -0.0042
     18  CE1      -33.6630   -4.3460   39.8450 C.ar   44  PHE44      -0.0003
     19  CE2      -31.9890   -6.0040   40.3840 C.ar   44  PHE44      -0.0003
     20  CZ       -32.3200   -4.7550   39.8670 C.ar   44  PHE44      -0.0000
     21  N        -31.2860   -5.6840   45.2820 N.3    64  PRO64      -0.2116
     22  CA       -31.5320   -4.3700   45.8960 C.3    64  PRO64       0.1372
     23  C        -32.4990   -4.6170   47.0460 C.2    64  PRO64       0.2244
     24  O        -33.4760   -5.3460   46.8930 O.2    64  PRO64      -0.2868
     25  CB       -32.1490   -3.5600   44.7570 C.3    64  PRO64       0.0268
     26  CG       -31.5180   -4.1880   43.5280 C.3    64  PRO64       0.0207
     27  CD       -31.6140   -5.6650   43.8470 C.3    64  PRO64       0.0892
     28  N        -34.9850   -3.1170   48.5170 N.3    66  ASP66      -0.1225
     29  CA       -36.4150   -2.8220   48.4780 C.3    66  ASP66       0.1805
     30  C        -37.2530   -4.0540   48.1470 C.2    66  ASP66       0.2597
     31  O        -38.3780   -4.1890   48.6180 O.2    66  ASP66      -0.2718
     32  CB       -36.6980   -1.7170   47.4490 C.3    66  ASP66       0.1424
     33  CG       -36.3180   -2.1240   46.0440 C.2    66  ASP66       0.3668
     34  OD1      -35.1140   -2.3540   45.7900 O.co2  66  ASP66      -0.2456
     35  OD2      -37.2250   -2.2270   45.1890 O.co2  66  ASP66      -0.2456
     36  N        -36.6940   -4.9490   47.3410 N.am   67  ASN67      -0.1974
     37  CA       -37.3880   -6.1620   46.9130 C.3    67  ASN67       0.1688
     38  C        -37.6310   -7.2020   47.9950 C.2    67  ASN67       0.2292
     39  O        -38.5780   -7.9890   47.9020 O.2    67  ASN67      -0.2864
     40  CB       -36.6010   -6.8370   45.7910 C.3    67  ASN67       0.1181
     41  CG       -36.5630   -6.0100   44.5360 C.2    67  ASN67       0.2629
     42  OD1      -37.5630   -5.9020   43.8290 O.2    67  ASN67      -0.2716
     43  ND2      -35.4080   -5.4060   44.2530 N.am   67  ASN67      -0.0877
     44  N        -25.5110    1.9990   47.3400 N.3   112  GLN112     -0.1245
     45  CA       -25.5620    2.7580   46.0980 C.3   112  GLN112      0.1566
     46  C        -26.3580    4.0430   46.1620 C.2   112  GLN112      0.2260
     47  O        -27.4240    4.1040   46.7720 O.2   112  GLN112     -0.2867
     48  CB       -26.1690    1.8950   44.9800 C.3   112  GLN112      0.0367
     49  CG       -25.4690    0.5720   44.7520 C.3   112  GLN112      0.0905
     50  CD       -26.0880   -0.2440   43.6340 C.2   112  GLN112      0.2608
     51  OE1      -25.3880   -0.9870   42.9380 O.2   112  GLN112     -0.2717
     52  NE2      -27.4000   -0.1270   43.4630 N.am  112  GLN112     -0.0878
     53  N        -32.5800    7.9150   32.5450 N.3   145  ASP145     -0.1239
     54  CA       -33.8030    7.1270   32.5910 C.3   145  ASP145      0.1674
     55  C        -34.8760    7.9820   33.2620 C.2   145  ASP145      0.2266
     56  O        -35.3610    7.6650   34.3480 O.2   145  ASP145     -0.2867
     57  CB       -33.5330    5.8480   33.3890 C.3   145  ASP145      0.1410
     58  CG       -34.4530    4.7270   33.0100 C.2   145  ASP145      0.3668
     59  OD1      -35.2880    4.9320   32.1070 O.co2 145  ASP145     -0.2456
     60  OD2      -34.3390    3.6390   33.6110 O.co2 145  ASP145     -0.2456
     61  N        -38.1640    6.8080   35.1810 N.3   148  ASN148     -0.1240
     62  CA       -37.9070    5.7620   36.1700 C.3   148  ASN148      0.1653
     63  C        -37.8640    6.4550   37.5380 C.2   148  ASN148      0.2266
     64  O        -36.9790    7.2660   37.7870 O.2   148  ASN148     -0.2867
     65  CB       -36.5570    5.1040   35.8670 C.3   148  ASN148      0.1155
     66  CG       -36.2710    3.9020   36.7540 C.2   148  ASN148      0.2627
     67  OD1      -36.8210    3.7750   37.8450 O.2   148  ASN148     -0.2716
     68  ND2      -35.3910    3.0220   36.2880 N.am  148  ASN148     -0.0877
     69  N        -36.9130    5.5060   40.3720 N.3   150  TYR150     -0.1227
     70  CA       -35.6650    5.2890   41.0880 C.3   150  TYR150      0.1736
     71  C        -34.7190    6.4590   40.8430 C.2   150  TYR150      0.2595
     72  O        -34.0140    6.8920   41.7480 O.2   150  TYR150     -0.2718
     73  CB       -34.9880    3.9920   40.6310 C.3   150  TYR150      0.0548
     74  CG       -33.6300    3.7650   41.2730 C.ar  150  TYR150     -0.0200
     75  CD1      -33.5240    3.2920   42.5820 C.ar  150  TYR150     -0.0009
     76  CD2      -32.4560    4.0450   40.5770 C.ar  150  TYR150     -0.0009
     77  CE1      -32.2720    3.1010   43.1800 C.ar  150  TYR150      0.0417
     78  CE2      -31.2040    3.8660   41.1610 C.ar  150  TYR150      0.0417
     79  CZ       -31.1200    3.3910   42.4640 C.ar  150  TYR150      0.1957
     80  OH       -29.8810    3.1960   43.0340 O.3   150  TYR150     -0.2866
     81  N        -34.7070    6.9760   39.6170 N.am  151  PHE151     -0.1976
     82  CA       -33.8260    8.0970   39.2980 C.3   151  PHE151      0.1639
     83  C        -34.4520    9.4750   39.4500 C.2   151  PHE151      0.2290
     84  O        -33.8260   10.3890   39.9950 O.2   151  PHE151     -0.2864
     85  CB       -33.2930    7.9790   37.8700 C.3   151  PHE151      0.0560
     86  CG       -32.3620    6.8280   37.6660 C.ar  151  PHE151     -0.0200
     87  CD1      -31.0730    6.8630   38.1870 C.ar  151  PHE151     -0.0042
     88  CD2      -32.7780    5.7010   36.9600 C.ar  151  PHE151     -0.0042
     89  CE1      -30.2040    5.7880   38.0080 C.ar  151  PHE151     -0.0003
     90  CE2      -31.9220    4.6220   36.7740 C.ar  151  PHE151     -0.0003
     91  CZ       -30.6290    4.6660   37.3010 C.ar  151  PHE151     -0.0000
     92  N        -22.7810    0.3310   38.3380 N.3   226  TRP226     -0.1241
     93  CA       -23.0840   -0.7740   37.4360 C.3   226  TRP226      0.1605
     94  C        -22.6290   -0.4710   36.0020 C.2   226  TRP226      0.2264
     95  O        -22.4620   -1.3820   35.1910 O.2   226  TRP226     -0.2867
     96  CB       -24.5840   -1.1010   37.4850 C.3   226  TRP226      0.0550
     97  CG       -25.4930    0.0940   37.3690 C.ar  226  TRP226      0.0003
     98  CD1      -25.9510    0.6670   36.2170 C.ar  226  TRP226      0.0946
     99  CD2      -26.0520    0.8630   38.4470 C.ar  226  TRP226      0.0152
    100  NE1      -26.7600    1.7390   36.5060 N.ar  226  TRP226     -0.2442
    101  CE2      -26.8390    1.8840   37.8670 C.ar  226  TRP226      0.0810
    102  CE3      -25.9640    0.7890   39.8440 C.ar  226  TRP226      0.0012
    103  CZ2      -27.5370    2.8280   38.6370 C.ar  226  TRP226      0.0191
    104  CZ3      -26.6600    1.7310   40.6130 C.ar  226  TRP226      0.0001
    105  CH2      -27.4360    2.7350   40.0040 C.ar  226  TRP226      0.0015
    106  N        -29.6030    2.8530   47.9760 N.3   257  GLY257     -0.1225
    107  CA       -29.9370    1.4660   47.7470 C.3   257  GLY257      0.1811
    108  C        -28.8770    0.5940   48.4030 C.2   257  GLY257      0.2280
    109  O        -27.6910    0.9260   48.3930 O.2   257  GLY257     -0.2866
    110  N        -27.3410   -3.2120   48.3460 N.3   259  ILE259     -0.1245
    111  CA       -27.3050   -4.4600   47.5940 C.3   259  ILE259      0.1561
    112  C        -27.1030   -5.5740   48.6120 C.2   259  ILE259      0.2260
    113  O        -26.1860   -5.5080   49.4370 O.2   259  ILE259     -0.2867
    114  CB       -26.1640   -4.4640   46.5790 C.3   259  ILE259      0.0252
    115  CG1      -26.3440   -3.2880   45.6070 C.3   259  ILE259      0.0019
    116  CG2      -26.1440   -5.7940   45.8290 C.3   259  ILE259      0.0019
    117  CD1      -27.6520   -3.3090   44.8250 C.3   259  ILE259      0.0001
    118  N        -34.5410    3.5610   50.1630 N.3   327  MET327     -0.1245
    119  CA       -35.7550    3.0690   49.5360 C.3   327  MET327      0.1570
    120  C        -36.5760    2.2910   50.5570 C.2   327  MET327      0.2261
    121  O        -36.0180    1.5780   51.4000 O.2   327  MET327     -0.2867
    122  CB       -35.4390    2.1080   48.3820 C.3   327  MET327      0.0387
    123  CG       -34.6710    2.7000   47.2200 C.3   327  MET327      0.0595
    124  SD       -34.6710    1.5740   45.8000 S.3   327  MET327     -0.1393
    125  CE       -33.3290    0.4520   46.2370 C.3   327  MET327      0.0692
    126  N        -43.6040   -2.1000   45.9370 N.3   334  GLN334     -0.1245
    127  CA       -43.6780   -2.6870   44.6040 C.3   334  GLN334      0.1566
    128  C        -44.8610   -2.1060   43.8340 C.2   334  GLN334      0.2260
    129  O        -44.8110   -1.9770   42.6080 O.2   334  GLN334     -0.2867
    130  CB       -43.7850   -4.2180   44.6760 C.3   334  GLN334      0.0367
    131  CG       -42.5750   -4.9060   45.3210 C.3   334  GLN334      0.0905
    132  CD       -41.2420   -4.4760   44.7130 C.2   334  GLN334      0.2608
    133  OE1      -40.3130   -4.0930   45.4310 O.2   334  GLN334     -0.2717
    134  NE2      -41.1420   -4.5410   43.3920 N.am  334  GLN334     -0.0878
    135  N        -43.5350    0.9980   42.1050 N.3   337  TRP337     -0.1241
    136  CA       -42.7510    0.7610   40.8950 C.3   337  TRP337      0.1605
    137  C        -43.6700    0.3860   39.7190 C.2   337  TRP337      0.2264
    138  O        -43.4180    0.7690   38.5770 O.2   337  TRP337     -0.2867
    139  CB       -41.7510   -0.3890   41.1020 C.3   337  TRP337      0.0550
    140  CG       -40.7120   -0.2220   42.2000 C.ar  337  TRP337      0.0003
    141  CD1      -40.3340   -1.1770   43.1050 C.ar  337  TRP337      0.0946
    142  CD2      -39.8640    0.9160   42.4480 C.ar  337  TRP337      0.0152
    143  NE1      -39.3080   -0.7090   43.8940 N.ar  337  TRP337     -0.2442
    144  CE2      -39.0000    0.5700   43.5130 C.ar  337  TRP337      0.0810
    145  CE3      -39.7500    2.1890   41.8730 C.ar  337  TRP337      0.0012
    146  CZ2      -38.0320    1.4530   44.0170 C.ar  337  TRP337      0.0191
    147  CZ3      -38.7850    3.0690   42.3740 C.ar  337  TRP337      0.0001
    148  CH2      -37.9400    2.6930   43.4360 C.ar  337  TRP337      0.0015
    149  N        -45.6180    3.3740   38.1850 N.3   340  MET340     -0.1245
    150  CA       -44.6280    4.3250   37.6970 C.3   340  MET340      0.1570
    151  C        -44.7510    4.7450   36.2300 C.2   340  MET340      0.2261
    152  O        -44.3090    5.8280   35.8500 O.2   340  MET340     -0.2867
    153  CB       -43.2650    3.7050   37.9750 C.3   340  MET340      0.0387
    154  CG       -42.0610    4.3480   37.3830 C.3   340  MET340      0.0595
    155  SD       -40.6920    3.4800   38.1730 S.3   340  MET340     -0.1393
    156  CE       -40.3130    2.1870   36.9950 C.3   340  MET340      0.0692
@<TRIPOS>BOND
     1    59    58   ar
     2    53    54    1
     3    54    55    1
     4    54    57    1
     5    58    57    1
     6    58    60   ar
     7    55    56    2
     8    61    62    1
     9    95    94    2
    10   152   151    2
    11    65    62    1
    12    65    66    1
    13    94    93    1
    14    62    63    1
    15    98   100   ar
    16    98    97   ar
    17   151   150    1
    18    68    66   am
    19   100   101   ar
    20    66    67    2
    21    90    88   ar
    22    90    91   ar
    23    88    86   ar
    24   156   155    1
    25    91    89   ar
    26    97    96    1
    27    97    99   ar
    28   154   153    1
    29   154   155    1
    30    93    96    1
    31    93    92    1
    32    63    64    2
    33    86    85    1
    34    86    87   ar
    35   150   153    1
    36   150   149    1
    37   101    99   ar
    38   101   103   ar
    39    85    82    1
    40    89    87   ar
    41     3     4    2
    42     3     2    1
    43    99   102   ar
    44   138   137    2
    45   103   105   ar
    46    10    11    1
    47    82    83    1
    48    82    81    1
    49    83    84    2
    50     2     1    1
    51     2     5    1
    52    81    71   am
    53   137   136    1
    54   102   104   ar
    55    18    20   ar
    56    18    16   ar
    57    20    19   ar
    58   105   104   ar
    59    16    15   ar
    60    69    70    1
    61    19    17   ar
    62    11    12    1
    63    11    14    1
    64    76    78   ar
    65    76    74   ar
    66    73    70    1
    67    73    74    1
    68     5     6    1
    69     8     7    2
    70    71    70    1
    71    71    72    2
    72    15    17   ar
    73    15    14    1
    74   136   139    1
    75   136   135    1
    76   139   140    1
    77    12    13    2
    78    78    79   ar
    79    74    75   ar
    80     7     9   am
    81     7     6    1
    82   145   147   ar
    83   145   142   ar
    84   140   142   ar
    85   140   141   ar
    86   147   148   ar
    87   142   144   ar
    88    79    80    1
    89    79    77   ar
    90    75    77   ar
    91   129   128    2
    92    51    50    2
    93   141   143   ar
    94   134   132   am
    95   148   146   ar
    96    52    50   am
    97   144   143   ar
    98   144   146   ar
    99    26    27    1
   100    26    25    1
   101    50    49    1
   102    42    41    2
   103   128   127    1
   104    27    21    1
   105    43    41   am
   106    41    40    1
   107   127   130    1
   108   127   126    1
   109   130   131    1
   110   132   131    1
   111   132   133    2
   112    49    48    1
   113    25    22    1
   114   117   115    1
   115    48    45    1
   116    35    33   ar
   117    21    22    1
   118   115   114    1
   119    34    33   ar
   120    40    37    1
   121   124   125    1
   122   124   123    1
   123   116   114    1
   124    22    23    1
   125    33    32    1
   126    45    46    1
   127    45    44    1
   128    46    47    2
   129   114   111    1
   130    24    23    2
   131    37    36    1
   132    37    38    1
   133   123   122    1
   134    36    30   am
   135    32    29    1
   136   111   110    1
   137   111   112    1
   138   107   106    1
   139   107   108    1
   140    39    38    2
   141    30    29    1
   142    30    31    2
   143   122   119    1
   144   109   108    2
   145    29    28    1
   146   112   113    2
   147   119   118    1
   148   119   120    1
   149   120   121    2
