@<TRIPOS>MOLECULE
tmp/1urwA00.pdb
 162 155 0 0 0
SMALL
GASTEIGER

@<TRIPOS>ATOM
      1  N         14.3380  -16.1350    5.3070 N.3     9  LYS9       -0.1231
      2  CA        14.8820  -14.7850    5.2740 C.3     9  LYS9        0.1693
      3  C         13.7950  -13.8000    5.6900 C.2     9  LYS9        0.2592
      4  O         12.6570  -13.8860    5.2280 O.2     9  LYS9       -0.2718
      5  CB        15.3840  -14.4530    3.8730 C.3     9  LYS9        0.0285
      6  CG        16.6820  -15.1420    3.5770 C.3     9  LYS9        0.0035
      7  CD        17.0800  -14.4380    2.3070 C.3     9  LYS9        0.0206
      8  CE        17.7240  -15.3340    1.3030 C.3     9  LYS9        0.1093
      9  NZ        18.8940  -16.0150    1.8140 N.3     9  LYS9       -0.1314
     10  N         14.1530  -12.8670    6.5670 N.am   10  ILE10      -0.1966
     11  CA        13.2160  -11.8640    7.0590 C.3    10  ILE10       0.1727
     12  C         13.3760  -10.5330    6.3290 C.2    10  ILE10       0.2616
     13  O         12.3920   -9.8610    6.0200 O.2    10  ILE10      -0.2715
     14  CB        13.4140  -11.6220    8.5720 C.3    10  ILE10       0.0290
     15  CG1       12.9380  -12.8440    9.3570 C.3    10  ILE10       0.0022
     16  CG2       12.6680  -10.3670    9.0110 C.3    10  ILE10       0.0023
     17  CD1       13.1050  -12.7080   10.8610 C.3    10  ILE10       0.0001
     18  N         14.6220  -10.1560    6.0610 N.am   11  GLY11      -0.1955
     19  CA        14.8790   -8.9020    5.3760 C.3    11  GLY11       0.1869
     20  C         16.3560   -8.6610    5.1480 C.2    11  GLY11       0.2309
     21  O         17.1940   -9.4570    5.5680 O.2    11  GLY11      -0.2863
     22  N         18.9100  -10.2050    7.8080 N.3    16  VAL16      -0.1245
     23  CA        18.2630  -10.7900    8.9820 C.3    16  VAL16       0.1561
     24  C         17.5420  -12.0870    8.6220 C.2    16  VAL16       0.2260
     25  O         16.8480  -12.1700    7.6090 O.2    16  VAL16      -0.2867
     26  CB        17.2550   -9.8170    9.6170 C.3    16  VAL16       0.0252
     27  CG1       16.7860  -10.3700   10.9580 C.3    16  VAL16       0.0019
     28  CG2       17.8960   -8.4430    9.8020 C.3    16  VAL16       0.0019
     29  N         15.6620  -14.2690   15.8790 N.3    29  ALA29      -0.1245
     30  CA        15.9020  -13.4520   14.6940 C.3    29  ALA29       0.1562
     31  C         17.4170  -13.2630   14.6660 C.2    29  ALA29       0.2260
     32  O         17.9940  -12.7450   15.6210 O.2    29  ALA29      -0.2867
     33  CB        15.2030  -12.1040   14.8140 C.3    29  ALA29       0.0290
     34  N         20.8020  -11.6180   12.8390 N.3    31  LYS31      -0.1245
     35  CA        21.3230  -10.6200   11.9150 C.3    31  LYS31       0.1561
     36  C         22.8160  -10.8310   11.6930 C.2    31  LYS31       0.2260
     37  O         23.5980  -10.8800   12.6450 O.2    31  LYS31      -0.2867
     38  CB        21.0820   -9.2050   12.4440 C.3    31  LYS31       0.0271
     39  CG        21.4630   -8.1200   11.4360 C.3    31  LYS31       0.0035
     40  CD        21.2870   -6.7170   12.0040 C.3    31  LYS31       0.0206
     41  CE        21.6320   -5.6620   10.9600 C.3    31  LYS31       0.1093
     42  NZ        21.5610   -4.2850   11.5150 N.3    31  LYS31      -0.1314
     43  N         13.0590   -4.5380   21.1710 N.3    51  VAL51      -0.1245
     44  CA        13.3730   -5.9340   20.8640 C.3    51  VAL51       0.1561
     45  C         14.6550   -6.3360   21.6070 C.2    51  VAL51       0.2260
     46  O         15.7010   -5.7130   21.4440 O.2    51  VAL51      -0.2867
     47  CB        13.5570   -6.1340   19.3400 C.3    51  VAL51       0.0252
     48  CG1       13.9780   -7.5630   19.0440 C.3    51  VAL51       0.0019
     49  CG2       12.2480   -5.8280   18.6200 C.3    51  VAL51       0.0019
     50  N         18.5410  -11.9480   18.2970 N.3    67  PHE67      -0.1227
     51  CA        17.4100  -11.1990   18.8510 C.3    67  PHE67       0.1736
     52  C         16.2220  -12.1070   19.1730 C.2    67  PHE67       0.2595
     53  O         16.0620  -13.1710   18.5740 O.2    67  PHE67      -0.2718
     54  CB        16.9420  -10.1540   17.8300 C.3    67  PHE67       0.0547
     55  CG        17.9520   -9.0780   17.5470 C.ar   67  PHE67      -0.0202
     56  CD1       18.0550   -7.9670   18.3790 C.ar   67  PHE67      -0.0042
     57  CD2       18.7900   -9.1660   16.4410 C.ar   67  PHE67      -0.0042
     58  CE1       18.9770   -6.9510   18.1060 C.ar   67  PHE67      -0.0003
     59  CE2       19.7130   -8.1590   16.1610 C.ar   67  PHE67      -0.0003
     60  CZ        19.8050   -7.0470   16.9970 C.ar   67  PHE67      -0.0000
     61  N         15.3870  -11.6850   20.1180 N.am   68  GLU68      -0.1965
     62  CA        14.1800  -12.4440   20.4410 C.3    68  GLU68       0.1733
     63  C         13.3460  -12.3410   19.1530 C.2    68  GLU68       0.2616
     64  O         13.5150  -11.3870   18.3910 O.2    68  GLU68      -0.2715
     65  CB        13.4260  -11.7830   21.6040 C.3    68  GLU68       0.0429
     66  CG        12.8130  -10.4190   21.2690 C.3    68  GLU68       0.1163
     67  CD        11.9050   -9.8820   22.3670 C.2    68  GLU68       0.3649
     68  OE1       11.0170  -10.6310   22.8320 O.co2  68  GLU68      -0.2457
     69  OE2       12.0710   -8.7120   22.7650 O.co2  68  GLU68      -0.2457
     70  N         12.4640  -13.3070   18.9080 N.am   69  PHE69      -0.1960
     71  CA        11.6310  -13.3110   17.6980 C.3    69  PHE69       0.1771
     72  C         10.2120  -12.8080   17.9550 C.2    69  PHE69       0.2619
     73  O          9.5600  -13.2400   18.9070 O.2    69  PHE69      -0.2715
     74  CB        11.5320  -14.7400   17.1330 C.3    69  PHE69       0.0574
     75  CG        10.7290  -14.8510   15.8590 C.ar   69  PHE69      -0.0200
     76  CD1       11.2680  -14.4370   14.6430 C.ar   69  PHE69      -0.0042
     77  CD2        9.4410  -15.3820   15.8730 C.ar   69  PHE69      -0.0042
     78  CE1       10.5440  -14.5500   13.4610 C.ar   69  PHE69      -0.0003
     79  CE2        8.7020  -15.5010   14.6930 C.ar   69  PHE69      -0.0003
     80  CZ         9.2540  -15.0850   13.4840 C.ar   69  PHE69      -0.0000
     81  N          9.7550  -11.8800   17.1190 N.am   70  LEU70      -0.1963
     82  CA         8.3830  -11.3860   17.2020 C.3    70  LEU70       0.1728
     83  C          7.6260  -11.8920   15.9800 C.2    70  LEU70       0.2616
     84  O          8.2300  -12.3000   14.9910 O.2    70  LEU70      -0.2715
     85  CB         8.3210   -9.8640   17.2800 C.3    70  LEU70       0.0311
     86  CG         8.3650   -9.4270   18.7430 C.3    70  LEU70       0.0022
     87  CD1        9.8210   -9.3680   19.1860 C.3    70  LEU70       0.0001
     88  CD2        7.6880   -8.0720   18.9300 C.3    70  LEU70       0.0001
     89  N          6.3010  -11.8160   16.0470 N.am   71  HIS71      -0.1959
     90  CA         5.4200  -12.3610   15.0200 C.3    71  HIS71       0.1787
     91  C          5.2480  -11.7010   13.6480 C.2    71  HIS71       0.2620
     92  O          5.0470  -12.4070   12.6540 O.2    71  HIS71      -0.2715
     93  CB         4.0350  -12.5680   15.6500 C.3    71  HIS71       0.0785
     94  CG         4.0840  -13.0580   17.0680 C.ar   71  HIS71       0.0821
     95  ND1        5.1540  -13.7660   17.5740 N.ar   71  HIS71      -0.2267
     96  CD2        3.1870  -12.9580   18.0770 C.ar   71  HIS71       0.1154
     97  CE1        4.9120  -14.0800   18.8360 C.ar   71  HIS71       0.1986
     98  NE2        3.7260  -13.6020   19.1660 N.ar   71  HIS71      -0.2212
     99  N          5.3000  -10.3720   13.5780 N.am   72  GLN72      -0.1963
    100  CA         5.0960   -9.6730   12.2970 C.3    72  GLN72       0.1733
    101  C          5.6240   -8.2430   12.3800 C.2    72  GLN72       0.2616
    102  O          5.7550   -7.7070   13.4810 O.2    72  GLN72      -0.2715
    103  CB         3.5870   -9.6520   11.9790 C.3    72  GLN72       0.0408
    104  CG         3.2070   -9.2020   10.5620 C.3    72  GLN72       0.0908
    105  CD         1.7520   -9.5180   10.2210 C.2    72  GLN72       0.2608
    106  OE1        0.8640   -8.6750   10.3690 O.2    72  GLN72      -0.2717
    107  NE2        1.5030  -10.7480    9.7780 N.am   72  GLN72      -0.0878
    108  N          5.9420   -7.6270   11.2360 N.am   73  ASP73      -0.1971
    109  CA         6.4040   -6.2330   11.2670 C.3    73  ASP73       0.1709
    110  C          5.2540   -5.3020   10.8690 C.2    73  ASP73       0.2293
    111  O          4.2510   -5.7530   10.3130 O.2    73  ASP73      -0.2864
    112  CB         7.6730   -6.0220   10.4030 C.3    73  ASP73       0.1436
    113  CG         7.4270   -6.1210    8.8970 C.2    73  ASP73       0.3671
    114  OD1        8.3120   -6.6730    8.2100 O.co2  73  ASP73      -0.2456
    115  OD2        6.3950   -5.6330    8.3970 O.co2  73  ASP73      -0.2456
    116  N          4.0490   -5.0350    7.0130 N.3    76  LYS76      -0.1245
    117  CA         3.1550   -6.1060    6.5850 C.3    76  LYS76       0.1561
    118  C          1.7510   -5.9280    7.1660 C.2    76  LYS76       0.2260
    119  O          0.7550   -6.1340    6.4660 O.2    76  LYS76      -0.2867
    120  CB         3.7320   -7.4720    6.9880 C.3    76  LYS76       0.0271
    121  CG         2.8790   -8.6700    6.5570 C.3    76  LYS76       0.0035
    122  CD         3.6130   -9.9860    6.8160 C.3    76  LYS76       0.0206
    123  CE         2.7840  -11.1840    6.3910 C.3    76  LYS76       0.1093
    124  NZ         3.5560  -12.4560    6.5360 N.3    76  LYS76      -0.1314
    125  N          9.2570   -1.1830    8.6730 N.3   118  GLN118     -0.1231
    126  CA         9.9960   -2.4450    8.5720 C.3   118  GLN118      0.1698
    127  C         10.7390   -2.8560    9.8510 C.2   118  GLN118      0.2592
    128  O         10.9710   -4.0550   10.0650 O.2   118  GLN118     -0.2718
    129  CB        10.9940   -2.3720    7.4080 C.3   118  GLN118      0.0381
    130  CG        10.3850   -2.1770    6.0210 C.3   118  GLN118      0.0905
    131  CD         9.5410   -0.9220    5.9070 C.2   118  GLN118      0.2608
    132  OE1        9.9280    0.1570    6.3610 O.2   118  GLN118     -0.2717
    133  NE2        8.3790   -1.0570    5.2840 N.am  118  GLN118     -0.0878
    134  N         11.1400   -1.8980   10.6940 N.am  119  ASN119     -0.1974
    135  CA        11.8250   -2.2890   11.9300 C.3   119  ASN119      0.1688
    136  C         11.0020   -2.0910   13.2010 C.2   119  ASN119      0.2292
    137  O         11.5460   -1.9490   14.2950 O.2   119  ASN119     -0.2864
    138  CB        13.2150   -1.6370   12.0900 C.3   119  ASN119      0.1181
    139  CG        13.2040   -0.1410   11.8980 C.2   119  ASN119      0.2629
    140  OD1       12.3120    0.5530   12.3740 O.2   119  ASN119     -0.2716
    141  ND2       14.2270    0.3700   11.2110 N.am  119  ASN119     -0.0877
    142  N          8.1820   -4.0880   15.2710 N.3   121  LEU121     -0.1245
    143  CA         7.6320   -5.4380   15.4020 C.3   121  LEU121      0.1561
    144  C          6.4620   -5.5720   16.3710 C.2   121  LEU121      0.2260
    145  O          6.4750   -4.9840   17.4470 O.2   121  LEU121     -0.2867
    146  CB         8.7390   -6.3890   15.8520 C.3   121  LEU121      0.0270
    147  CG         9.8970   -6.6690   14.8900 C.3   121  LEU121      0.0019
    148  CD1        9.3400   -7.2690   13.6010 C.3   121  LEU121      0.0001
    149  CD2       10.6840   -5.3940   14.5910 C.3   121  LEU121      0.0001
    150  N         13.2030   -2.0840   16.8920 N.3   131  ALA131     -0.1231
    151  CA        14.2910   -2.9990   16.5340 C.3   131  ALA131      0.1694
    152  C         15.3630   -2.2720   15.7220 C.2   131  ALA131      0.2592
    153  O         15.0690   -1.3000   15.0320 O.2   131  ALA131     -0.2718
    154  CB        13.7390   -4.1660   15.7300 C.3   131  ALA131      0.0304
    155  N         16.5980   -2.7600   15.8080 N.am  132  ASP132     -0.1974
    156  CA        17.7290   -2.1790   15.0950 C.3   132  ASP132      0.1709
    157  C         18.1430   -0.8220   15.7140 C.2   132  ASP132      0.2293
    158  O         18.6050    0.0650   15.0040 O.2   132  ASP132     -0.2864
    159  CB        17.3740   -1.9840   13.6130 C.3   132  ASP132      0.1436
    160  CG        18.3740   -2.6610   12.6670 C.2   132  ASP132      0.3671
    161  OD1       19.4550   -3.0970   13.1220 O.co2 132  ASP132     -0.2456
    162  OD2       18.0820   -2.7460   11.4560 O.co2 132  ASP132     -0.2456
@<TRIPOS>BOND
     1     8     9    1
     2     8     7    1
     3     7     6    1
     4     6     5    1
     5     5     2    1
     6    20    19    1
     7    20    21    2
     8     4     3    2
     9     2     1    1
    10     2     3    1
    11   133   131   am
    12    19    18    1
    13     3    10   am
    14   131   130    1
    15   131   132    2
    16    13    12    2
    17   130   129    1
    18    18    12   am
    19    12    11    1
    20   123   124    1
    21   123   122    1
    22   119   118    2
    23   121   122    1
    24   121   120    1
    25    10    11    1
    26   117   120    1
    27   117   116    1
    28   117   118    1
    29    11    14    1
    30   129   126    1
    31    25    24    2
    32    22    23    1
    33   114   113   ar
    34   115   113   ar
    35    14    16    1
    36    14    15    1
    37   126   125    1
    38   126   127    1
    39    24    23    1
    40   113   112    1
    41    23    26    1
    42    15    17    1
    43    26    28    1
    44    26    27    1
    45   107   105   am
    46   127   128    2
    47   127   134   am
    48   105   106    2
    49   105   104    1
    50   111   110    2
    51   112   109    1
    52   104   103    1
    53   134   135    1
    54   110   109    1
    55    41    42    1
    56    41    40    1
    57   141   139   am
    58   108   109    1
    59   108   101   am
    60    39    40    1
    61    39    38    1
    62   162   160   ar
    63    36    35    1
    64    36    37    2
    65   139   138    1
    66   139   140    2
    67    35    38    1
    68    35    34    1
    69   135   138    1
    70   135   136    1
    71   103   100    1
    72   100   101    1
    73   100    99    1
    74   101   102    2
    75    92    91    2
    76   160   161   ar
    77   160   159    1
    78   136   137    2
    79    78    80   ar
    80    78    76   ar
    81    80    79   ar
    82    99    91   am
    83   148   147    1
    84   159   156    1
    85    91    90    1
    86   149   147    1
    87    76    75   ar
    88    31    30    1
    89    31    32    2
    90    79    77   ar
    91    30    33    1
    92    30    29    1
    93   147   146    1
    94    84    83    2
    95   158   157    2
    96    90    93    1
    97    90    89    1
    98   153   152    2
    99   156   157    1
   100   156   155    1
   101   142   143    1
   102   143   146    1
   103   143   144    1
   104    93    94    1
   105   152   155   am
   106   152   151    1
   107   154   151    1
   108    75    77   ar
   109    75    74    1
   110    83    89   am
   111    83    82    1
   112    59    57   ar
   113    59    60   ar
   114   144   145    2
   115    57    55   ar
   116   151   150    1
   117    60    58   ar
   118    94    95   ar
   119    94    96   ar
   120    81    82    1
   121    81    72   am
   122    74    71    1
   123    82    85    1
   124    85    86    1
   125    55    54    1
   126    55    56   ar
   127    95    97   ar
   128    71    72    1
   129    71    70    1
   130    54    51    1
   131    72    73    2
   132    96    98   ar
   133    58    56   ar
   134    50    51    1
   135    64    63    2
   136    53    52    2
   137    49    47    1
   138    86    88    1
   139    86    87    1
   140    97    98   ar
   141    51    52    1
   142    70    63   am
   143    48    47    1
   144    63    62    1
   145    52    61   am
   146    47    44    1
   147    61    62    1
   148    62    65    1
   149    44    43    1
   150    44    45    1
   151    66    65    1
   152    66    67    1
   153    46    45    2
   154    67    69   ar
   155    67    68   ar
