@<TRIPOS>MOLECULE
tmp/1urxA00.pdb
 186 176 0 0 0
SMALL
GASTEIGER

@<TRIPOS>ATOM
      1  N          7.1050   18.2540   11.9780 N.3    49  TYR49      -0.1241
      2  CA         8.5600   18.4250   11.8940 C.3    49  TYR49       0.1605
      3  C          8.9850   18.3080   10.4360 C.2    49  TYR49       0.2264
      4  O          8.1540   17.9830    9.5680 O.2    49  TYR49      -0.2867
      5  CB         9.2420   17.4310   12.8110 C.3    49  TYR49       0.0534
      6  CG        10.7480   17.5020   12.8550 C.ar   49  TYR49      -0.0201
      7  CD1       11.3800   18.6150   13.3970 C.ar   49  TYR49      -0.0009
      8  CD2       11.5360   16.4240   12.4480 C.ar   49  TYR49      -0.0009
      9  CE1       12.7470   18.7020   13.4590 C.ar   49  TYR49       0.0417
     10  CE2       12.9330   16.4860   12.4950 C.ar   49  TYR49       0.0417
     11  CZ        13.5270   17.6420   13.0020 C.ar   49  TYR49       0.1957
     12  OH        14.8910   17.7200   13.0570 O.3    49  TYR49      -0.2866
     13  N         10.7830   16.2060    8.9270 N.3    51  ASN51      -0.1225
     14  CA        10.7970   14.8170    8.4940 C.3    51  ASN51       0.1785
     15  C         10.0130   13.9960    9.5390 C.2    51  ASN51       0.2598
     16  O          9.3090   14.5910   10.3740 O.2    51  ASN51      -0.2718
     17  CB        12.2360   14.3240    8.2590 C.3    51  ASN51       0.1169
     18  CG        13.1160   14.4200    9.4980 C.2    51  ASN51       0.2627
     19  OD1       12.7290   13.9720   10.5620 O.2    51  ASN51      -0.2716
     20  ND2       14.3390   14.9630    9.3450 N.am   51  ASN51      -0.0877
     21  N         10.1410   12.6740    9.4840 N.am   52  GLY52      -0.1942
     22  CA         9.3900   11.7440   10.3290 C.3    52  GLY52       0.2014
     23  C          9.7430   11.6780   11.8160 C.2    52  GLY52       0.2638
     24  O          9.0250   11.0180   12.5960 O.2    52  GLY52      -0.2714
     25  N         10.8320   12.3280   12.2490 N.am   53  TRP53      -0.1973
     26  CA        11.2260   12.2920   13.6570 C.3    53  TRP53       0.1640
     27  C         10.1050   12.8820   14.5100 C.2    53  TRP53       0.2290
     28  O          9.5100   13.8600   14.1200 O.2    53  TRP53      -0.2864
     29  CB        12.4590   13.1380   13.8590 C.3    53  TRP53       0.0576
     30  CG        13.1110   13.0680   15.1840 C.ar   53  TRP53       0.0006
     31  CD1       13.5360   11.9510   15.8390 C.ar   53  TRP53       0.0946
     32  CD2       13.5100   14.1870   15.9820 C.ar   53  TRP53       0.0152
     33  NE1       14.1540   12.3140   17.0100 N.ar   53  TRP53      -0.2442
     34  CE2       14.1620   13.6770   17.1220 C.ar   53  TRP53       0.0810
     35  CE3       13.3920   15.5680   15.8450 C.ar   53  TRP53       0.0012
     36  CZ2       14.6710   14.4980   18.1200 C.ar   53  TRP53       0.0191
     37  CZ3       13.9030   16.3950   16.8490 C.ar   53  TRP53       0.0001
     38  CH2       14.5420   15.8500   17.9660 C.ar   53  TRP53       0.0015
     39  N         12.5840   14.8790   20.7230 N.3    56  PRO56      -0.2116
     40  CA        13.5610   14.3510   21.6670 C.3    56  PRO56       0.1372
     41  C         12.9050   13.9300   22.9850 C.2    56  PRO56       0.2244
     42  O         11.8640   14.4670   23.3440 O.2    56  PRO56      -0.2868
     43  CB        14.4930   15.5390   21.8890 C.3    56  PRO56       0.0268
     44  CG        13.5700   16.7100   21.7950 C.3    56  PRO56       0.0207
     45  CD        12.5290   16.3540   20.7710 C.3    56  PRO56       0.0892
     46  N         10.3650   22.9430   26.9080 N.3   114  ALA114     -0.1245
     47  CA        10.9220   23.9640   26.0360 C.3   114  ALA114      0.1562
     48  C          9.8730   24.5390   25.0700 C.2   114  ALA114      0.2260
     49  O          8.9960   23.8150   24.5730 O.2   114  ALA114     -0.2867
     50  CB        12.0940   23.4230   25.2430 C.3   114  ALA114      0.0290
     51  N         10.3220   26.9480   21.5550 N.3   116  ALA116     -0.1245
     52  CA        11.3730   27.4820   20.7220 C.3   116  ALA116      0.1562
     53  C         10.9050   27.9860   19.3530 C.2   116  ALA116      0.2260
     54  O          9.9210   27.5130   18.8000 O.2   116  ALA116     -0.2867
     55  CB        12.4700   26.4280   20.5760 C.3   116  ALA116      0.0290
     56  N         13.1210   28.5740   15.8840 N.3   118  TRP118     -0.1241
     57  CA        14.4330   28.1450   15.4270 C.3   118  TRP118      0.1605
     58  C         14.4510   27.7620   13.9710 C.2   118  TRP118      0.2264
     59  O         13.4090   27.6910   13.3460 O.2   118  TRP118     -0.2867
     60  CB        14.9730   26.9860   16.2650 C.3   118  TRP118      0.0550
     61  CG        14.1100   25.7630   16.4420 C.ar  118  TRP118      0.0003
     62  CD1       12.8650   25.7250   17.0060 C.ar  118  TRP118      0.0946
     63  CD2       14.4520   24.3990   16.1510 C.ar  118  TRP118      0.0152
     64  NE1       12.3920   24.4340   17.0470 N.ar  118  TRP118     -0.2442
     65  CE2       13.3470   23.5940   16.5300 C.ar  118  TRP118      0.0810
     66  CE3       15.5850   23.7710   15.6070 C.ar  118  TRP118      0.0012
     67  CZ2       13.3550   22.2090   16.3920 C.ar  118  TRP118      0.0191
     68  CZ3       15.5930   22.3970   15.4830 C.ar  118  TRP118      0.0001
     69  CH2       14.5030   21.6260   15.8860 C.ar  118  TRP118      0.0015
     70  N         16.3270   24.9670   11.0550 N.3   120  LEU120     -0.1245
     71  CA        17.0540   23.7170   10.8900 C.3   120  LEU120      0.1561
     72  C         17.0310   23.3320    9.4220 C.2   120  LEU120      0.2260
     73  O         15.9930   23.3430    8.7960 O.2   120  LEU120     -0.2867
     74  CB        16.4300   22.5700   11.6830 C.3   120  LEU120      0.0270
     75  CG        17.2300   21.2600   11.7540 C.3   120  LEU120      0.0019
     76  CD1       18.5690   21.4450   12.4500 C.3   120  LEU120      0.0001
     77  CD2       16.3970   20.1890   12.4080 C.3   120  LEU120      0.0001
     78  N         19.9880   18.6550    8.5590 N.3   124  GLU124     -0.1245
     79  CA        20.0380   18.7020   10.0180 C.3   124  GLU124      0.1567
     80  C         21.4240   19.0740   10.5740 C.2   124  GLU124      0.2260
     81  O         21.7000   18.8580   11.7610 O.2   124  GLU124     -0.2867
     82  CB        19.4710   17.4360   10.6750 C.3   124  GLU124      0.0388
     83  CG        18.0120   17.2030   10.3270 C.3   124  GLU124      0.1160
     84  CD        17.4240   15.9030   10.8390 C.2   124  GLU124      0.3649
     85  OE1       16.3250   15.9430   11.4770 O.co2 124  GLU124     -0.2457
     86  OE2       18.0240   14.8300   10.5840 O.co2 124  GLU124     -0.2457
     87  N         21.6110   24.8770   12.6830 N.3   127  SER127     -0.1217
     88  CA        20.4400   25.3990   13.3950 C.3   127  SER127      0.1889
     89  C         20.6970   26.7500   14.0610 C.2   127  SER127      0.2288
     90  O         21.7620   26.9670   14.6240 O.2   127  SER127     -0.2866
     91  CB        19.9810   24.3840   14.4260 C.3   127  SER127      0.2089
     92  OG        18.9000   24.8820   15.1310 O.3   127  SER127     -0.2183
     93  N         18.8220   29.1200   17.0050 N.3   129  ASP129     -0.1239
     94  CA        17.7600   29.2490   17.9890 C.3   129  ASP129      0.1674
     95  C         17.5120   30.7060   18.2780 C.2   129  ASP129      0.2266
     96  O         18.2320   31.3240   19.0750 O.2   129  ASP129     -0.2867
     97  CB        18.1230   28.5230   19.2900 C.3   129  ASP129      0.1410
     98  CG        18.4620   27.0770   19.0560 C.2   129  ASP129      0.3668
     99  OD1       17.7050   26.3930   18.3370 O.co2 129  ASP129     -0.2456
    100  OD2       19.4720   26.5420   19.5460 O.co2 129  ASP129     -0.2456
    101  N         14.6900   30.0720   22.9000 N.3   132  GLU132     -0.1245
    102  CA        14.3700   28.7590   23.4660 C.3   132  GLU132      0.1567
    103  C         14.1590   29.0330   24.9530 C.2   132  GLU132      0.2260
    104  O         15.1100   29.3940   25.6450 O.2   132  GLU132     -0.2867
    105  CB        15.4920   27.7470   23.2280 C.3   132  GLU132      0.0388
    106  CG        15.1960   26.3250   23.7460 C.3   132  GLU132      0.1160
    107  CD        16.3050   25.3240   23.4670 C.2   132  GLU132      0.3649
    108  OE1       15.9850   24.1340   23.1640 O.co2 132  GLU132     -0.2457
    109  OE2       17.5200   25.7130   23.6010 O.co2 132  GLU132     -0.2457
    110  N         23.3330   25.8650   16.6630 N.3   152  HIS152     -0.1241
    111  CA        24.0550   24.5810   16.6600 C.3   152  HIS152      0.1621
    112  C         24.6650   24.2620   15.3300 C.2   152  HIS152      0.2264
    113  O         24.1730   24.6600   14.2990 O.2   152  HIS152     -0.2867
    114  CB        23.1330   23.4250   17.0750 C.3   152  HIS152      0.0745
    115  CG        22.5400   23.5850   18.4520 C.ar  152  HIS152      0.0817
    116  ND1       22.8830   22.7720   19.5140 N.ar  152  HIS152     -0.2268
    117  CD2       21.6020   24.4410   18.9260 C.ar  152  HIS152      0.1154
    118  CE1       22.1990   23.1340   20.5890 C.ar  152  HIS152      0.1986
    119  NE2       21.4150   24.1460   20.2640 N.ar  152  HIS152     -0.2212
    120  N         26.1370   20.5720   13.6750 N.3   154  PHE154     -0.1241
    121  CA        26.1340   19.1480   13.9420 C.3   154  PHE154      0.1605
    122  C         26.9170   18.3580   12.8890 C.2   154  PHE154      0.2264
    123  O         26.9000   18.6640   11.6900 O.2   154  PHE154     -0.2867
    124  CB        24.7240   18.5400   13.9090 C.3   154  PHE154      0.0534
    125  CG        23.6840   19.1950   14.8200 C.ar  154  PHE154     -0.0203
    126  CD1       22.8480   20.1900   14.3470 C.ar  154  PHE154     -0.0042
    127  CD2       23.4970   18.7330   16.1310 C.ar  154  PHE154     -0.0042
    128  CE1       21.8960   20.7470   15.1770 C.ar  154  PHE154     -0.0003
    129  CE2       22.5400   19.2740   16.9400 C.ar  154  PHE154     -0.0003
    130  CZ        21.7400   20.2870   16.4620 C.ar  154  PHE154     -0.0000
    131  N         26.0940   14.5000   11.8350 N.3   156  ARG156     -0.1245
    132  CA        24.9690   13.5940   12.0620 C.3   156  ARG156      0.1563
    133  C         25.3800   12.1930   12.5050 C.2   156  ARG156      0.2260
    134  O         24.6970   11.5860   13.3200 O.2   156  ARG156     -0.2867
    135  CB        24.0710   13.5140   10.8390 C.3   156  ARG156      0.0307
    136  CG        23.5190   14.8760   10.3970 C.3   156  ARG156      0.0489
    137  CD        22.9410   15.7250   11.5150 C.3   156  ARG156      0.2205
    138  NE        21.9530   14.9880   12.2820 N.pl3 156  ARG156     -0.0865
    139  CZ        21.3110   15.4780   13.3380 C.cat 156  ARG156      0.5346
    140  NH1       21.5240   16.7000   13.7540 N.pl3 156  ARG156      0.1354
    141  NH2       20.4770   14.7040   13.9940 N.pl3 156  ARG156      0.1354
    142  N         26.6510   11.2550   15.8630 N.3   159  PHE159     -0.1241
    143  CA        25.9740   12.4800   16.3180 C.3   159  PHE159      0.1605
    144  C         26.8960   13.2860   17.2060 C.2   159  PHE159      0.2264
    145  O         27.3620   12.7950   18.2490 O.2   159  PHE159     -0.2867
    146  CB        24.6680   12.1620   17.0510 C.3   159  PHE159      0.0534
    147  CG        23.9150   13.3930   17.5070 C.ar  159  PHE159     -0.0203
    148  CD1       23.1780   14.1430   16.6080 C.ar  159  PHE159     -0.0042
    149  CD2       23.9460   13.7920   18.8180 C.ar  159  PHE159     -0.0042
    150  CE1       22.4930   15.2860   17.0190 C.ar  159  PHE159     -0.0003
    151  CE2       23.2470   14.9390   19.2530 C.ar  159  PHE159     -0.0003
    152  CZ        22.5140   15.6690   18.3450 C.ar  159  PHE159     -0.0000
    153  N         27.1840   17.4790   18.6220 N.3   161  ASP161     -0.1239
    154  CA        26.4320   18.7240   18.7480 C.3   161  ASP161      0.1674
    155  C         27.2940   19.8130   19.3570 C.2   161  ASP161      0.2266
    156  O         27.7110   19.6780   20.5090 O.2   161  ASP161     -0.2867
    157  CB        25.2300   18.4140   19.6490 C.3   161  ASP161      0.1410
    158  CG        24.3560   19.6040   19.9080 C.2   161  ASP161      0.3668
    159  OD1       24.5910   20.6620   19.2960 O.co2 161  ASP161     -0.2456
    160  OD2       23.4110   19.5580   20.7390 O.co2 161  ASP161     -0.2456
    161  N          8.0500   25.2990   17.8930 N.3   232  ASP232     -0.1239
    162  CA         7.5950   24.0450   18.5410 C.3   232  ASP232      0.1674
    163  C          7.6760   24.1130   20.0670 C.2   232  ASP232      0.2266
    164  O          8.0980   25.1260   20.6540 O.2   232  ASP232     -0.2867
    165  CB         8.3150   22.7650   18.0090 C.3   232  ASP232      0.1410
    166  CG         9.7130   22.5610   18.5800 C.2   232  ASP232      0.3668
    167  OD1       10.3200   23.5110   19.1060 O.co2 232  ASP232     -0.2456
    168  OD2       10.3050   21.4650   18.4630 O.co2 232  ASP232     -0.2456
    169  N          8.8320   21.1590   23.2590 N.3   234  GLU234     -0.1245
    170  CA         9.5130   19.8870   23.4280 C.3   234  GLU234      0.1567
    171  C          9.6020   19.5140   24.9090 C.2   234  GLU234      0.2260
    172  O          9.7850   20.3870   25.7650 O.2   234  GLU234     -0.2867
    173  CB        10.9310   19.9240   22.8370 C.3   234  GLU234      0.0388
    174  CG        10.9340   20.0990   21.3180 C.3   234  GLU234      0.1160
    175  CD        12.3300   20.3610   20.7540 C.2   234  GLU234      0.3649
    176  OE1       13.3430   20.1700   21.4500 O.co2 234  GLU234     -0.2457
    177  OE2       12.3780   20.8110   19.5710 O.co2 234  GLU234     -0.2457
    178  N         12.0350   17.8870   27.0040 N.3   236  GLN236     -0.1245
    179  CA        13.4340   17.5700   26.7990 C.3   236  GLN236      0.1566
    180  C         13.9980   16.8340   27.9850 C.2   236  GLN236      0.2260
    181  O         14.8990   17.3230   28.6500 O.2   236  GLN236     -0.2867
    182  CB        14.2360   18.8750   26.5120 C.3   236  GLN236      0.0367
    183  CG        13.7940   19.5880   25.2270 C.3   236  GLN236      0.0905
    184  CD        14.4680   20.9280   25.0020 C.2   236  GLN236      0.2608
    185  OE1       14.4160   21.4660   23.8820 O.2   236  GLN236     -0.2717
    186  NE2       15.1260   21.4440   26.0090 N.am  236  GLN236     -0.0878
@<TRIPOS>BOND
     1    17    14    1
     2    17    18    1
     3    14    13    1
     4    14    15    1
     5    78    79    1
     6    73    72    2
     7    20    18   am
     8    72    71    1
     9    21    15   am
    10    21    22    1
    11    18    19    2
    12    15    16    2
    13     4     3    2
    14    79    80    1
    15    79    82    1
    16    83    82    1
    17    83    84    1
    18    22    23    1
    19   136   135    1
    20   136   137    1
    21     3     2    1
    22    80    81    2
    23    86    84   ar
    24    84    85   ar
    25   135   132    1
    26    71    70    1
    27    71    74    1
    28   137   138    1
    29    74    75    1
    30   123   122    2
    31    75    77    1
    32    75    76    1
    33    23    25   am
    34    23    24    2
    35   131   132    1
    36     2     1    1
    37     2     5    1
    38   132   133    1
    39    25    26    1
    40   138   139    2
    41     8    10   ar
    42     8     6   ar
    43    10    11   ar
    44   133   134    2
    45    87    88    1
    46     5     6    1
    47     6     7   ar
    48   122   121    1
    49    11    12    1
    50    11     9   ar
    51   139   140    1
    52   139   141    1
    53    59    58    2
    54    88    89    1
    55    88    91    1
    56     7     9   ar
    57    26    29    1
    58    26    27    1
    59   120   121    1
    60    29    30    1
    61   124   121    1
    62   124   125    1
    63    58    57    1
    64    89    90    2
    65    28    27    2
    66   113   112    2
    67   126   125   ar
    68   126   128   ar
    69    91    92    1
    70   125   127   ar
    71   128   130   ar
    72    30    31   ar
    73    30    32   ar
    74   112   111    1
    75    57    56    1
    76    57    60    1
    77    68    66   ar
    78    68    69   ar
    79    66    63   ar
    80    31    33   ar
    81    35    32   ar
    82    35    37   ar
    83   142   143    1
    84    69    67   ar
    85    32    34   ar
    86   127   129   ar
    87    63    61   ar
    88    63    65   ar
    89    60    61    1
    90   143   146    1
    91   143   144    1
    92    67    65   ar
    93    61    62   ar
    94   130   129   ar
    95    65    64   ar
    96   148   150   ar
    97   148   147   ar
    98   111   110    1
    99   111   114    1
   100    37    38   ar
   101    93    94    1
   102    62    64   ar
   103    33    34   ar
   104   150   152   ar
   105   146   147    1
   106   114   115    1
   107    34    36   ar
   108   144   145    2
   109   147   149   ar
   110   161   162    1
   111    38    36   ar
   112    94    95    1
   113    94    97    1
   114   165   162    1
   115   165   166    1
   116    95    96    2
   117    99    98   ar
   118   152   151   ar
   119   115   117   ar
   120   115   116   ar
   121   168   166   ar
   122   162   163    1
   123   166   167   ar
   124   153   154    1
   125   154   155    1
   126   154   157    1
   127    54    53    2
   128   149   151   ar
   129   117   119   ar
   130    98    97    1
   131    98   100   ar
   132   159   158   ar
   133    53    52    1
   134   155   156    2
   135   116   118   ar
   136   177   175   ar
   137   157   158    1
   138   158   160   ar
   139   163   164    2
   140   119   118   ar
   141    55    52    1
   142    52    51    1
   143    39    45    1
   144    39    40    1
   145   175   174    1
   146   175   176   ar
   147    45    44    1
   148   174   173    1
   149    40    43    1
   150    40    41    1
   151    44    43    1
   152   173   170    1
   153   101   102    1
   154    41    42    2
   155   108   107   ar
   156   105   102    1
   157   105   106    1
   158   169   170    1
   159   170   171    1
   160   102   103    1
   161   107   109   ar
   162   107   106    1
   163   185   184    2
   164    49    48    2
   165   171   172    2
   166   103   104    2
   167   184   183    1
   168   184   186   am
   169    48    47    1
   170   183   182    1
   171    50    47    1
   172    47    46    1
   173   182   179    1
   174   179   178    1
   175   179   180    1
   176   180   181    2
