@<TRIPOS>MOLECULE
tmp/1urxA01.pdb
 164 158 0 0 0
SMALL
GASTEIGER

@<TRIPOS>ATOM
      1  N         -6.9630   20.8720   13.1220 N.3    34  GLU34      -0.1245
      2  CA        -7.0960   19.5770   12.4290 C.3    34  GLU34       0.1567
      3  C         -8.5220   19.5110   11.8090 C.2    34  GLU34       0.2260
      4  O         -9.5100   19.8320   12.4660 O.2    34  GLU34      -0.2867
      5  CB        -6.8250   18.4090   13.4110 C.3    34  GLU34       0.0388
      6  CG        -6.5800   17.0460   12.7430 C.3    34  GLU34       0.1160
      7  CD        -5.1050   16.7660   12.3710 C.2    34  GLU34       0.3649
      8  OE1       -4.4050   17.6700   11.8290 O.co2  34  GLU34      -0.2457
      9  OE2       -4.6390   15.6220   12.5980 O.co2  34  GLU34      -0.2457
     10  N          2.8680   16.0700   17.1450 N.3    62  ASN62      -0.1240
     11  CA         1.5170   15.6350   16.8160 C.3    62  ASN62       0.1653
     12  C          0.7100   16.7730   16.1970 C.2    62  ASN62       0.2266
     13  O          0.6330   17.8640   16.7600 O.2    62  ASN62      -0.2867
     14  CB         0.8580   15.0770   18.0970 C.3    62  ASN62       0.1155
     15  CG        -0.3560   14.2040   17.8010 C.2    62  ASN62       0.2627
     16  OD1       -0.3470   13.3880   16.8460 O.2    62  ASN62      -0.2716
     17  ND2       -1.4260   14.3780   18.5940 N.am   62  ASN62      -0.0877
     18  N         -2.4720   17.6980   15.5780 N.3    64  PRO64      -0.2102
     19  CA        -3.5940   18.4110   16.2260 C.3    64  PRO64       0.1504
     20  C         -3.1790   19.4890   17.2130 C.2    64  PRO64       0.2575
     21  O         -3.9540   20.3780   17.4730 O.2    64  PRO64      -0.2718
     22  CB        -4.3580   17.3010   16.9470 C.3    64  PRO64       0.0282
     23  CG        -3.9180   16.0360   16.3230 C.3    64  PRO64       0.0208
     24  CD        -2.5290   16.2400   15.7730 C.3    64  PRO64       0.0893
     25  N         -1.9580   19.4160   17.7560 N.am   65  GLN65      -0.1980
     26  CA        -1.5690   20.3780   18.7640 C.3    65  GLN65       0.1601
     27  C         -1.0020   21.6900   18.1840 C.2    65  GLN65       0.2287
     28  O         -0.5300   22.5460   18.9280 O.2    65  GLN65      -0.2864
     29  CB        -0.6090   19.7180   19.7490 C.3    65  GLN65       0.0394
     30  CG        -1.3360   19.0090   20.9040 C.3    65  GLN65       0.0908
     31  CD        -1.9120   17.6880   20.4970 C.2    65  GLN65       0.2608
     32  OE1       -3.0890   17.3390   20.8510 O.2    65  GLN65      -0.2717
     33  NE2       -1.1370   16.9170   19.8370 N.am   65  GLN65      -0.0878
     34  N         -2.6310   24.8330   16.1040 N.3    67  TRP67      -0.1241
     35  CA        -3.9110   25.4310   15.6490 C.3    67  TRP67       0.1605
     36  C         -3.9340   26.9340   15.8310 C.2    67  TRP67       0.2264
     37  O         -3.0620   27.4650   16.4580 O.2    67  TRP67      -0.2867
     38  CB        -5.1030   24.7300   16.3340 C.3    67  TRP67       0.0550
     39  CG        -5.0210   24.6690   17.8210 C.ar   67  TRP67       0.0003
     40  CD1       -4.3830   23.7190   18.5670 C.ar   67  TRP67       0.0946
     41  CD2       -5.5870   25.5870   18.7570 C.ar   67  TRP67       0.0152
     42  NE1       -4.5110   23.9870   19.9100 N.ar   67  TRP67      -0.2442
     43  CE2       -5.2480   25.1270   20.0570 C.ar   67  TRP67       0.0810
     44  CE3       -6.3520   26.7500   18.6410 C.ar   67  TRP67       0.0012
     45  CZ2       -5.6280   25.8040   21.2200 C.ar   67  TRP67       0.0191
     46  CZ3       -6.7340   27.4270   19.8090 C.ar   67  TRP67       0.0001
     47  CH2       -6.3570   26.9500   21.0740 C.ar   67  TRP67       0.0015
     48  N         -6.5850   30.6030   16.5300 N.3    69  ASN69      -0.1240
     49  CA        -7.8640   30.9470   17.2100 C.3    69  ASN69       0.1653
     50  C         -8.4940   32.2390   16.7010 C.2    69  ASN69       0.2266
     51  O         -9.3530   32.8190   17.3690 O.2    69  ASN69      -0.2867
     52  CB        -7.6530   31.0410   18.7360 C.3    69  ASN69       0.1155
     53  CG        -6.8320   32.2540   19.1410 C.2    69  ASN69       0.2627
     54  OD1       -6.3870   33.0050   18.2740 O.2    69  ASN69      -0.2716
     55  ND2       -6.5940   32.4310   20.4540 N.am   69  ASN69      -0.0877
     56  N         -6.6890   34.9990   16.0600 N.3    71  SER71      -0.1202
     57  CA        -5.7180   36.0540   16.2660 C.3    71  SER71       0.2020
     58  C         -4.2920   35.5140   16.5420 C.2    71  SER71       0.2618
     59  O         -3.3450   36.2150   16.2740 O.2    71  SER71      -0.2717
     60  CB        -6.1300   37.0030   17.3920 C.3    71  SER71       0.2103
     61  OG        -6.2640   36.3440   18.6270 O.3    71  SER71      -0.2182
     62  N         -4.1650   34.3050   17.0820 N.am   72  GLN72      -0.1979
     63  CA        -2.8530   33.7420   17.4470 C.3    72  GLN72       0.1601
     64  C         -2.7120   32.2690   17.0800 C.2    72  GLN72       0.2287
     65  O         -3.6950   31.5110   17.0080 O.2    72  GLN72      -0.2864
     66  CB        -2.6280   33.9260   18.9430 C.3    72  GLN72       0.0394
     67  CG        -2.7720   35.3720   19.3510 C.3    72  GLN72       0.0908
     68  CD        -2.3300   35.6770   20.7180 C.2    72  GLN72       0.2608
     69  OE1       -2.5500   36.8130   21.1880 O.2    72  GLN72      -0.2717
     70  NE2       -1.7900   34.6980   21.4200 N.am   72  GLN72      -0.0878
     71  N          0.5420   23.7990   21.3160 N.3    76  GLN76      -0.1245
     72  CA         0.0160   23.2290   22.5490 C.3    76  GLN76       0.1566
     73  C          0.6790   21.9300   22.9140 C.2    76  GLN76       0.2260
     74  O          1.1560   21.1780   22.0400 O.2    76  GLN76      -0.2867
     75  CB        -1.5100   23.0430   22.4370 C.3    76  GLN76       0.0367
     76  CG        -2.2320   22.7070   23.7720 C.3    76  GLN76       0.0905
     77  CD        -3.7460   22.9040   23.7100 C.2    76  GLN76       0.2608
     78  OE1       -4.4140   23.1170   24.7580 O.2    76  GLN76      -0.2717
     79  NE2       -4.2910   22.8270   22.5520 N.am   76  GLN76      -0.0878
     80  N         -0.0820   18.2750   25.2460 N.3    78  GLN78      -0.1231
     81  CA        -1.1260   17.4390   25.8630 C.3    78  GLN78       0.1683
     82  C         -0.5200   16.2190   26.5270 C.2    78  GLN78       0.2434
     83  O          0.6060   15.7940   26.2230 O.2    78  GLN78      -0.2733
     84  CB        -2.1270   16.9570   24.8210 C.3    78  GLN78       0.0380
     85  CG        -3.0560   17.9640   24.3020 C.3    78  GLN78       0.0905
     86  CD        -4.0720   18.3950   25.3620 C.2    78  GLN78       0.2608
     87  OE1       -3.9240   19.4650   25.9950 O.2    78  GLN78      -0.2717
     88  NE2       -5.0980   17.6170   25.5090 N.am   78  GLN78      -0.0878
     89  N         -1.2580   15.6190   27.4530 N.am   79  PRO79      -0.2729
     90  CA        -0.8150   14.3630   28.0530 C.3    79  PRO79       0.1401
     91  C         -0.8130   13.2690   27.0160 C.2    79  PRO79       0.2269
     92  O         -1.7700   13.1630   26.2670 O.2    79  PRO79      -0.2865
     93  CB        -1.9210   14.0640   29.0980 C.3    79  PRO79       0.0296
     94  CG        -2.6040   15.3010   29.2820 C.3    79  PRO79       0.0237
     95  CD        -2.5550   16.0480   27.9820 C.3    79  PRO79       0.0939
     96  N          2.1700   14.8560   23.9940 N.3    86  TYR86      -0.1241
     97  CA         1.9600   15.2050   22.5910 C.3    86  TYR86       0.1605
     98  C          2.3390   16.6840   22.4780 C.2    86  TYR86       0.2264
     99  O          2.0370   17.4730   23.3710 O.2    86  TYR86      -0.2867
    100  CB         0.5130   14.9830   22.1290 C.3    86  TYR86       0.0534
    101  CG         0.1240   13.5310   22.1190 C.ar   86  TYR86      -0.0201
    102  CD1       -0.9480   13.0760   22.8600 C.ar   86  TYR86      -0.0009
    103  CD2        0.8630   12.5870   21.3780 C.ar   86  TYR86      -0.0009
    104  CE1       -1.2840   11.7200   22.8920 C.ar   86  TYR86       0.0417
    105  CE2        0.5250   11.2350   21.3960 C.ar   86  TYR86       0.0417
    106  CZ        -0.5680   10.8170   22.1480 C.ar   86  TYR86       0.1957
    107  OH        -0.9080    9.4690   22.1630 O.3    86  TYR86      -0.2866
    108  N          4.3470   34.3470   23.7580 N.3   107  LYS107     -0.1245
    109  CA         4.3140   34.1660   25.2190 C.3   107  LYS107      0.1561
    110  C          4.5170   32.6910   25.5370 C.2   107  LYS107      0.2260
    111  O          3.6800   31.8400   25.1730 O.2   107  LYS107     -0.2867
    112  CB         2.9590   34.6400   25.7690 C.3   107  LYS107      0.0271
    113  CG         2.8090   34.5920   27.3150 C.3   107  LYS107      0.0035
    114  CD         1.5040   35.2500   27.6980 C.3   107  LYS107      0.0206
    115  CE         1.1130   35.1100   29.1300 C.3   107  LYS107      0.1093
    116  NZ        -0.2020   35.8880   29.2730 N.3   107  LYS107     -0.1314
    117  N          3.8220   38.5610   26.6700 N.3   182  TYR182     -0.1241
    118  CA         4.3030   38.5250   25.3070 C.3   182  TYR182      0.1605
    119  C          5.5620   39.3780   25.1940 C.2   182  TYR182      0.2264
    120  O          5.6590   40.4920   25.7510 O.2   182  TYR182     -0.2867
    121  CB         3.2550   38.9860   24.2940 C.3   182  TYR182      0.0534
    122  CG         2.0940   38.0360   24.0980 C.ar  182  TYR182     -0.0201
    123  CD1        1.0490   37.9860   25.0070 C.ar  182  TYR182     -0.0009
    124  CD2        2.0340   37.1670   23.0170 C.ar  182  TYR182     -0.0009
    125  CE1       -0.0010   37.1470   24.8270 C.ar  182  TYR182      0.0417
    126  CE2        0.9720   36.3000   22.8500 C.ar  182  TYR182      0.0417
    127  CZ        -0.0510   36.3040   23.7680 C.ar  182  TYR182      0.1957
    128  OH        -1.1160   35.4100   23.6850 O.3   182  TYR182     -0.2866
    129  N         -5.1410   23.4520   30.3160 N.3   251  ASP251     -0.1225
    130  CA        -5.1010   24.3480   29.1550 C.3   251  ASP251      0.1805
    131  C         -5.0130   25.8560   29.4430 C.2   251  ASP251      0.2598
    132  O         -4.8930   26.6700   28.5200 O.2   251  ASP251     -0.2718
    133  CB        -6.0590   23.9540   28.0310 C.3   251  ASP251      0.1424
    134  CG        -7.4870   24.0950   28.3740 C.2   251  ASP251      0.3668
    135  OD1       -7.8020   24.1320   29.5840 O.co2 251  ASP251     -0.2456
    136  OD2       -8.3810   24.1230   27.4670 O.co2 251  ASP251     -0.2456
    137  N         -4.9750   26.2210   30.7100 N.am  252  SER252     -0.1952
    138  CA        -4.6040   27.5710   31.0940 C.3   252  SER252      0.1924
    139  C         -3.0890   27.7890   31.0880 C.2   252  SER252      0.2314
    140  O         -2.6220   28.9200   31.2360 O.2   252  SER252     -0.2863
    141  CB        -5.1930   27.9060   32.4830 C.3   252  SER252      0.2116
    142  OG        -4.3820   27.4100   33.5430 O.3   252  SER252     -0.2180
    143  N         -0.2070   26.1440   26.5180 N.3   255  ILE255     -0.1245
    144  CA        -0.1400   26.7330   25.1680 C.3   255  ILE255      0.1561
    145  C          0.9650   27.8010   25.0870 C.2   255  ILE255      0.2260
    146  O          1.0400   28.7330   25.8810 O.2   255  ILE255     -0.2867
    147  CB        -1.4950   27.3370   24.6890 C.3   255  ILE255      0.0252
    148  CG1       -2.5790   26.2600   24.6690 C.3   255  ILE255      0.0019
    149  CG2       -1.3440   27.9460   23.2860 C.3   255  ILE255      0.0019
    150  CD1       -3.9360   26.8180   24.6170 C.3   255  ILE255      0.0001
    151  N          1.8640   30.6830   22.9030 N.3   257  TRP257     -0.1241
    152  CA         1.0550   31.5730   22.0340 C.3   257  TRP257      0.1605
    153  C          1.9860   32.4220   21.1710 C.2   257  TRP257      0.2264
    154  O          2.8910   33.0520   21.6810 O.2   257  TRP257     -0.2867
    155  CB         0.1480   32.5100   22.8510 C.3   257  TRP257      0.0550
    156  CG        -1.0200   31.8380   23.5130 C.ar  257  TRP257      0.0003
    157  CD1       -1.2010   31.6010   24.8520 C.ar  257  TRP257      0.0946
    158  CD2       -2.1820   31.3540   22.8620 C.ar  257  TRP257      0.0152
    159  NE1       -2.3980   30.9610   25.0580 N.ar  257  TRP257     -0.2442
    160  CE2       -3.0250   30.8010   23.8490 C.ar  257  TRP257      0.0810
    161  CE3       -2.5810   31.2830   21.5300 C.ar  257  TRP257      0.0012
    162  CZ2       -4.2490   30.2070   23.5290 C.ar  257  TRP257      0.0191
    163  CZ3       -3.8140   30.7170   21.2200 C.ar  257  TRP257      0.0001
    164  CH2       -4.6210   30.1810   22.2220 C.ar  257  TRP257      0.0015
@<TRIPOS>BOND
     1     3     2    1
     2     3     4    2
     3     8     7   ar
     4     7     9   ar
     5     7     6    1
     6     2     1    1
     7     2     5    1
     8     6     5    1
     9    18    24    1
    10    18    19    1
    11    35    36    1
    12    35    34    1
    13    35    38    1
    14    24    23    1
    15    36    37    2
    16    56    57    1
    17    12    13    2
    18    12    11    1
    19    19    22    1
    20    19    20    1
    21    57    58    1
    22    57    60    1
    23    59    58    2
    24    23    22    1
    25    38    39    1
    26    48    49    1
    27    58    62   am
    28    50    49    1
    29    50    51    2
    30    11    10    1
    31    11    14    1
    32    16    15    2
    33    65    64    2
    34    64    63    1
    35    62    63    1
    36    49    52    1
    37    20    21    2
    38    20    25   am
    39    60    61    1
    40    63    66    1
    41    25    26    1
    42    15    14    1
    43    15    17   am
    44    39    40   ar
    45    39    41   ar
    46    27    26    1
    47    27    28    2
    48    54    53    2
    49    40    42   ar
    50    44    41   ar
    51    44    46   ar
    52    52    53    1
    53    41    43   ar
    54    26    29    1
    55    66    67    1
    56    53    55   am
    57    67    68    1
    58    29    30    1
    59    46    47   ar
    60    33    31   am
    61    42    43   ar
    62    43    45   ar
    63    31    32    2
    64    31    30    1
    65    68    69    2
    66    68    70   am
    67    47    45   ar
    68   153   154    2
    69   153   152    1
    70   163   161   ar
    71   163   164   ar
    72    71    72    1
    73   103   105   ar
    74   103   101   ar
    75   105   106   ar
    76   161   158   ar
    77   152   155    1
    78   152   151    1
    79    74    73    2
    80   101   100    1
    81   101   102   ar
    82   100    97    1
    83   106   107    1
    84   106   104   ar
    85   164   162   ar
    86    75    72    1
    87    75    76    1
    88    98    97    1
    89    98    99    2
    90    72    73    1
    91    79    77   am
    92    97    96    1
    93   126   124   ar
    94   126   127   ar
    95   155   156    1
    96   102   104   ar
    97   158   156   ar
    98   158   160   ar
    99   124   122   ar
   100   149   147    1
   101   156   157   ar
   102   162   160   ar
   103   128   127    1
   104    77    76    1
   105    77    78    2
   106   108   109    1
   107   127   125   ar
   108   160   159   ar
   109   122   121    1
   110   122   123   ar
   111   121   118    1
   112    85    84    1
   113    85    86    1
   114   150   148    1
   115   148   147    1
   116   147   144    1
   117    84    81    1
   118   125   123   ar
   119   157   159   ar
   120   145   144    1
   121   145   146    2
   122   144   143    1
   123   111   110    2
   124   119   118    1
   125   119   120    2
   126   109   110    1
   127   109   112    1
   128    80    81    1
   129   118   117    1
   130    86    88   am
   131    86    87    2
   132   112   113    1
   133    81    82    1
   134    83    82    2
   135    92    91    2
   136    82    89   am
   137    91    90    1
   138   113   114    1
   139    89    95    1
   140    89    90    1
   141   136   134   ar
   142   114   115    1
   143    95    94    1
   144   133   134    1
   145   133   130    1
   146    90    93    1
   147   134   135   ar
   148   132   131    2
   149    93    94    1
   150   115   116    1
   151   130   131    1
   152   130   129    1
   153   131   137   am
   154   137   138    1
   155   139   138    1
   156   139   140    2
   157   138   141    1
   158   141   142    1
