@<TRIPOS>MOLECULE
tmp/1us0A01.pdb
 182 184 0 0 0
SMALL
GASTEIGER

@<TRIPOS>ATOM
      1  N         15.2490   -8.6590   25.5160 N.3    21  TRP21      -0.1241
      2  CA        15.7150   -9.3900   24.3390 C.3    21  TRP21       0.1605
      3  C         16.8120  -10.3590   24.7690 C.2    21  TRP21       0.2264
      4  O         17.7770   -9.9450   25.4260 O.2    21  TRP21      -0.2867
      5  CB        16.2550   -8.4040   23.2940 C.3    21  TRP21       0.0550
      6  CG        16.8690   -9.0680   22.1090 C.ar   21  TRP21       0.0003
      7  CD1       16.4890  -10.2190   21.4730 C.ar   21  TRP21       0.0946
      8  CD2       18.0570   -8.6150   21.4350 C.ar   21  TRP21       0.0152
      9  NE1       17.3850  -10.5310   20.4740 N.ar   21  TRP21      -0.2442
     10  CE2       18.3500   -9.5620   20.4320 C.ar   21  TRP21       0.0810
     11  CE3       18.8980   -7.5000   21.5990 C.ar   21  TRP21       0.0012
     12  CZ2       19.4590   -9.4280   19.5910 C.ar   21  TRP21       0.0191
     13  CZ3       19.9920   -7.3700   20.7710 C.ar   21  TRP21       0.0001
     14  CH2       20.2740   -8.3210   19.7820 C.ar   21  TRP21       0.0015
     15  N          8.6230   -9.9740   18.9060 N.3    48  VAL48      -0.1231
     16  CA         9.6570  -10.7220   18.1980 C.3    48  VAL48       0.1692
     17  C         10.6300  -11.3970   19.1570 C.2    48  VAL48       0.2592
     18  O         11.3560  -12.3110   18.7680 O.2    48  VAL48      -0.2718
     19  CB        10.3820   -9.7900   17.1990 C.3    48  VAL48       0.0266
     20  CG1       11.3580   -8.8640   17.8970 C.3    48  VAL48       0.0020
     21  CG2       11.0710  -10.5660   16.0830 C.3    48  VAL48       0.0020
     22  N         10.6810  -10.9510   20.4280 N.am   49  TYR49      -0.1976
     23  CA        11.5910  -11.5680   21.3790 C.3    49  TYR49       0.1639
     24  C         11.1210  -12.9590   21.8210 C.2    49  TYR49       0.2290
     25  O         11.9080  -13.6900   22.4340 O.2    49  TYR49      -0.2864
     26  CB        11.7860  -10.6780   22.6100 C.3    49  TYR49       0.0560
     27  CG        12.3890   -9.3250   22.3080 C.ar   49  TYR49      -0.0198
     28  CD1       12.9930   -9.0260   21.0890 C.ar   49  TYR49      -0.0009
     29  CD2       12.3290   -8.3110   23.2750 C.ar   49  TYR49      -0.0009
     30  CE1       13.4820   -7.7530   20.8200 C.ar   49  TYR49       0.0417
     31  CE2       12.8250   -7.0350   23.0210 C.ar   49  TYR49       0.0417
     32  CZ        13.3920   -6.7540   21.7770 C.ar   49  TYR49       0.1957
     33  OH        13.8340   -5.4780   21.5240 O.3    49  TYR49      -0.2866
     34  N          5.9650   -5.7570   15.4240 N.3    80  TRP80      -0.1241
     35  CA         6.9950   -6.3100   14.5620 C.3    80  TRP80       0.1605
     36  C          6.7180   -5.9660   13.0940 C.2    80  TRP80       0.2264
     37  O          5.6230   -5.5940   12.6810 O.2    80  TRP80      -0.2867
     38  CB         7.1500   -7.8330   14.8210 C.3    80  TRP80       0.0550
     39  CG         8.2930   -8.3780   14.0330 C.ar   80  TRP80       0.0003
     40  CD1        8.2250   -9.2430   12.9610 C.ar   80  TRP80       0.0946
     41  CD2        9.6580   -7.9340   14.1000 C.ar   80  TRP80       0.0152
     42  NE1        9.4490   -9.3470   12.3600 N.ar   80  TRP80      -0.2442
     43  CE2       10.3460   -8.5680   13.0410 C.ar   80  TRP80       0.0810
     44  CE3       10.3580   -7.0740   14.9600 C.ar   80  TRP80       0.0012
     45  CZ2       11.7070   -8.3620   12.8200 C.ar   80  TRP80       0.0191
     46  CZ3       11.7040   -6.8750   14.7460 C.ar   80  TRP80       0.0001
     47  CH2       12.3780   -7.5140   13.6850 C.ar   80  TRP80       0.0015
     48  N          8.6010   -1.1490   15.8210 N.3   111  HIS111     -0.1226
     49  CA         9.8930   -1.6950   16.2240 C.3   111  HIS111      0.1752
     50  C         11.0390   -1.2650   15.3010 C.2   111  HIS111      0.2596
     51  O         12.1170   -0.9150   15.7710 O.2   111  HIS111     -0.2718
     52  CB         9.7560   -3.2260   16.3040 C.3   111  HIS111      0.0759
     53  CG        10.8050   -3.9030   17.1260 C.ar  111  HIS111      0.0818
     54  ND1       10.5090   -5.0920   17.7650 N.ar  111  HIS111     -0.2268
     55  CD2       12.1130   -3.5680   17.3530 C.ar  111  HIS111      0.1154
     56  CE1       11.6400   -5.4430   18.3600 C.ar  111  HIS111      0.1986
     57  NE2       12.6290   -4.5600   18.1450 N.ar  111  HIS111     -0.2212
     58  N         10.7790   -1.3540   13.9900 N.am  112  TRP112     -0.1976
     59  CA        11.7050   -0.8740   12.9810 C.3   112  TRP112      0.1640
     60  C         10.8550   -0.1740   11.9280 C.2   112  TRP112      0.2290
     61  O          9.6940   -0.5110   11.7240 O.2   112  TRP112     -0.2864
     62  CB        12.4810   -2.0390   12.3050 C.3   112  TRP112      0.0576
     63  CG        13.4730   -2.6960   13.2110 C.ar  112  TRP112      0.0006
     64  CD1       13.2350   -3.6670   14.1550 C.ar  112  TRP112      0.0946
     65  CD2       14.8570   -2.3600   13.3220 C.ar  112  TRP112      0.0152
     66  NE1       14.3860   -3.9400   14.8530 N.ar  112  TRP112     -0.2442
     67  CE2       15.3960   -3.1460   14.3720 C.ar  112  TRP112      0.0810
     68  CE3       15.7020   -1.4700   12.6380 C.ar  112  TRP112      0.0012
     69  CZ2       16.7140   -3.0300   14.7760 C.ar  112  TRP112      0.0191
     70  CZ3       17.0110   -1.3680   13.0230 C.ar  112  TRP112      0.0001
     71  CH2       17.5220   -2.1410   14.0980 C.ar  112  TRP112      0.0015
     72  N         10.8480   -0.4420    8.7850 N.3   114  THR114     -0.1218
     73  CA        10.6220   -1.2890    7.6440 C.3   114  THR114      0.1862
     74  C          9.4850   -2.2800    7.8550 C.2   114  THR114      0.2287
     75  O          9.4980   -3.0610    8.8010 O.2   114  THR114     -0.2866
     76  CB        11.9110   -2.1200    7.4320 C.3   114  THR114      0.1770
     77  OG1       12.2750   -2.7550    8.6480 O.3   114  THR114     -0.2211
     78  CG2       13.1100   -1.2810    7.0180 C.3   114  THR114      0.0375
     79  N          7.6860   -5.7100    6.4550 N.3   116  PHE116     -0.1241
     80  CA         8.0090   -6.9320    5.7330 C.3   116  PHE116      0.1605
     81  C          6.7140   -7.6510    5.3630 C.2   116  PHE116      0.2264
     82  O          5.6770   -7.4850    6.0050 O.2   116  PHE116     -0.2867
     83  CB         8.8240   -7.8990    6.5920 C.3   116  PHE116      0.0534
     84  CG        10.1100   -7.4050    7.1940 C.ar  116  PHE116     -0.0203
     85  CD1       10.7860   -6.2870    6.7520 C.ar  116  PHE116     -0.0042
     86  CD2       10.6410   -8.1360    8.2530 C.ar  116  PHE116     -0.0042
     87  CE1       11.9700   -5.8860    7.3800 C.ar  116  PHE116     -0.0003
     88  CE2       11.8150   -7.7530    8.8670 C.ar  116  PHE116     -0.0003
     89  CZ        12.4730   -6.6080    8.4380 C.ar  116  PHE116     -0.0000
     90  N          9.2840  -14.1720   10.7980 N.3   122  PHE122     -0.1227
     91  CA         9.5790  -12.8170   11.1970 C.3   122  PHE122      0.1736
     92  C         10.4790  -12.0750   10.2060 C.2   122  PHE122      0.2595
     93  O         10.4330  -10.8490   10.1520 O.2   122  PHE122     -0.2718
     94  CB        10.2220  -12.8010   12.5810 C.3   122  PHE122      0.0547
     95  CG         9.2770  -13.1960   13.7100 C.ar  122  PHE122     -0.0202
     96  CD1        7.9050  -12.9780   13.6580 C.ar  122  PHE122     -0.0042
     97  CD2        9.8120  -13.7530   14.8640 C.ar  122  PHE122     -0.0042
     98  CE1        7.0900  -13.2700   14.7620 C.ar  122  PHE122     -0.0003
     99  CE2        8.9960  -14.0340   15.9580 C.ar  122  PHE122     -0.0003
    100  CZ         7.6420  -13.7910   15.8990 C.ar  122  PHE122     -0.0000
    101  N         11.2880  -12.8240    9.4530 N.am  123  PHE123     -0.1976
    102  CA        12.1660  -12.2500    8.4360 C.3   123  PHE123      0.1639
    103  C         11.9330  -13.0250    7.1350 C.2   123  PHE123      0.2290
    104  O         12.7230  -13.8970    6.7810 O.2   123  PHE123     -0.2864
    105  CB        13.6400  -12.3100    8.8240 C.3   123  PHE123      0.0560
    106  CG        13.9980  -11.3700    9.9430 C.ar  123  PHE123     -0.0200
    107  CD1       13.8650  -11.7540   11.2660 C.ar  123  PHE123     -0.0042
    108  CD2       14.4890  -10.0930    9.6600 C.ar  123  PHE123     -0.0042
    109  CE1       14.2350  -10.9200   12.2940 C.ar  123  PHE123     -0.0003
    110  CE2       14.8430   -9.2530   10.7000 C.ar  123  PHE123     -0.0003
    111  CZ        14.7560   -9.6700   12.0080 C.ar  123  PHE123     -0.0000
    112  N         14.3540    2.8720   16.1170 N.3   161  ASN161     -0.1240
    113  CA        15.2700    2.7440   15.0000 C.3   161  ASN161      0.1653
    114  C         14.8670    3.6210   13.8100 C.2   161  ASN161      0.2266
    115  O         15.1400    3.3010   12.6640 O.2   161  ASN161     -0.2867
    116  CB        15.4410    1.3080   14.5050 C.3   161  ASN161      0.1155
    117  CG        15.8820    0.4240   15.6320 C.2   161  ASN161      0.2627
    118  OD1       17.0190    0.5730   16.1330 O.2   161  ASN161     -0.2716
    119  ND2       15.0210   -0.4760   16.0710 N.am  161  ASN161     -0.0877
    120  N         18.8700    1.8120   23.8770 N.3   210  TYR210     -0.1241
    121  CA        18.9690    0.3790   23.9590 C.3   210  TYR210      0.1605
    122  C         20.4300   -0.0580   23.7730 C.2   210  TYR210      0.2264
    123  O         21.3080    0.6860   23.3550 O.2   210  TYR210     -0.2867
    124  CB        18.0040   -0.3450   23.0200 C.3   210  TYR210      0.0534
    125  CG        18.2870   -0.3660   21.5380 C.ar  210  TYR210     -0.0201
    126  CD1       19.3630   -1.0790   21.0100 C.ar  210  TYR210     -0.0009
    127  CD2       17.3850    0.1890   20.6460 C.ar  210  TYR210     -0.0009
    128  CE1       19.5230   -1.2360   19.6440 C.ar  210  TYR210      0.0417
    129  CE2       17.5040    0.0110   19.2710 C.ar  210  TYR210      0.0417
    130  CZ        18.5690   -0.7290   18.7600 C.ar  210  TYR210      0.1957
    131  OH        18.7100   -1.0010   17.4500 O.3   210  TYR210     -0.2866
    132  N         25.6070  -12.3040   17.2040 N.3   220  TRP220     -0.1241
    133  CA        26.6030  -12.0730   16.1650 C.3   220  TRP220      0.1605
    134  C         27.8590  -11.4340   16.7010 C.2   220  TRP220      0.2264
    135  O         28.7020  -11.0050   15.9250 O.2   220  TRP220     -0.2867
    136  CB        26.0400  -11.2360   15.0540 C.3   220  TRP220      0.0550
    137  CG        25.3930   -9.9670   15.5060 C.ar  220  TRP220      0.0003
    138  CD1       26.0240   -8.7530   15.7290 C.ar  220  TRP220      0.0946
    139  CD2       24.0210   -9.7640   15.8060 C.ar  220  TRP220      0.0152
    140  NE1       25.0820   -7.8530   16.1560 N.ar  220  TRP220     -0.2442
    141  CE2       23.8290   -8.4230   16.1870 C.ar  220  TRP220      0.0810
    142  CE3       22.8690  -10.5990   15.7430 C.ar  220  TRP220      0.0012
    143  CZ2       22.5740   -7.8810   16.5250 C.ar  220  TRP220      0.0191
    144  CZ3       21.6590  -10.0990   16.0540 C.ar  220  TRP220      0.0001
    145  CH2       21.5060   -8.7430   16.4340 C.ar  220  TRP220      0.0015
    146  N         23.1230   -3.2990   16.5590 N.3   299  CYS299     -0.1221
    147  CA        21.9470   -3.6910   15.8240 C.3   299  CYS299      0.1808
    148  C         21.9800   -3.0600   14.4300 C.2   299  CYS299      0.2601
    149  O         21.7610   -1.8950   14.2030 O.2   299  CYS299     -0.2717
    150  CB        20.6390   -3.3340   16.4710 C.3   299  CYS299      0.0970
    151  SG        20.2490   -4.4590   17.8050 S.3   299  CYS299     -0.0800
    152  N         22.2590   -4.0040   13.5390 N.am  300  ALA300     -0.1965
    153  CA        22.1820   -3.7710   12.1270 C.3   300  ALA300      0.1728
    154  C         21.9260   -5.1460   11.5140 C.2   300  ALA300      0.2616
    155  O         22.1470   -6.1600   12.1770 O.2   300  ALA300     -0.2715
    156  CB        23.4310   -3.1230   11.5960 C.3   300  ALA300      0.0334
    157  N         21.5010   -5.1730   10.2560 N.am  301  LEU301     -0.1977
    158  CA        21.1950   -6.4730    9.6710 C.3   301  LEU301      0.1596
    159  C         21.2980   -6.4140    8.1550 C.2   301  LEU301      0.2287
    160  O         20.4840   -5.7970    7.4750 O.2   301  LEU301     -0.2864
    161  CB        19.7870   -6.9170   10.0940 C.3   301  LEU301      0.0297
    162  CG        19.4030   -8.3080    9.6160 C.3   301  LEU301      0.0022
    163  CD1       20.3200   -9.3700   10.1220 C.3   301  LEU301      0.0001
    164  CD2       17.9600   -8.5620   10.0430 C.3   301  LEU301      0.0001
    165  N         18.4360   -6.8300    5.4950 N.3   304  CYS304     -0.1235
    166  CA        17.4330   -5.8010    5.3980 C.3   304  CYS304      0.1677
    167  C         17.9220   -4.5040    4.7890 C.2   304  CYS304      0.2270
    168  O         17.1440   -3.5770    4.6160 O.2   304  CYS304     -0.2867
    169  CB        16.8270   -5.5470    6.7930 C.3   304  CYS304      0.0956
    170  SG        15.8860   -6.9520    7.4060 S.3   304  CYS304     -0.0801
    171  N         15.1700    0.9940    5.2230 N.3   310  TYR310     -0.1241
    172  CA        16.2250    0.6070    6.1510 C.3   310  TYR310      0.1605
    173  C         16.8750    1.8700    6.7110 C.2   310  TYR310      0.2264
    174  O         17.2050    2.7830    5.9470 O.2   310  TYR310     -0.2867
    175  CB        17.2700   -0.2580    5.4530 C.3   310  TYR310      0.0534
    176  CG        18.3030   -0.7910    6.4030 C.ar  310  TYR310     -0.0201
    177  CD1       18.0410   -1.9120    7.2110 C.ar  310  TYR310     -0.0009
    178  CD2       19.5590   -0.2140    6.5190 C.ar  310  TYR310     -0.0009
    179  CE1       18.9840   -2.4440    8.0640 C.ar  310  TYR310      0.0417
    180  CE2       20.5210   -0.7430    7.3760 C.ar  310  TYR310      0.0417
    181  CZ        20.2470   -1.8470    8.1360 C.ar  310  TYR310      0.1957
    182  OH        21.1590   -2.4160    8.9770 O.3   310  TYR310     -0.2866
@<TRIPOS>BOND
     1   168   167    2
     2   167   166    1
     3   171   172    1
     4    81    80    1
     5    81    82    2
     6   166   165    1
     7   166   169    1
     8   175   172    1
     9   175   176    1
    10    80    79    1
    11    80    83    1
    12   174   173    2
    13   172   173    1
    14   176   178   ar
    15   176   177   ar
    16   178   180   ar
    17    83    84    1
    18    85    84   ar
    19    85    87   ar
    20   104   103    2
    21   169   170    1
    22    78    76    1
    23   103   102    1
    24    84    86   ar
    25   177   179   ar
    26   180   181   ar
    27    87    89   ar
    28    76    73    1
    29    76    77    1
    30   160   159    2
    31    73    74    1
    32    73    72    1
    33    74    75    2
    34   179   181   ar
    35   181   182    1
    36   159   158    1
    37    86    88   ar
    38   102   105    1
    39   102   101    1
    40    89    88   ar
    41   105   106    1
    42   101    92   am
    43   162   164    1
    44   162   161    1
    45   162   163    1
    46   108   106   ar
    47   108   110   ar
    48   158   161    1
    49   158   157    1
    50   106   107   ar
    51    93    92    2
    52    92    91    1
    53   157   154   am
    54   110   111   ar
    55    90    91    1
    56    91    94    1
    57   107   109   ar
    58   154   153    1
    59   154   155    2
    60   156   153    1
    61    61    60    2
    62    60    59    1
    63   111   109   ar
    64   153   152    1
    65    62    59    1
    66    62    63    1
    67    42    40   ar
    68    42    43   ar
    69    94    95    1
    70    68    70   ar
    71    68    65   ar
    72   115   114    2
    73    37    36    2
    74    45    43   ar
    75    45    47   ar
    76    40    39   ar
    77    59    58    1
    78    70    71   ar
    79    43    41   ar
    80    36    35    1
    81    63    65   ar
    82    63    64   ar
    83    65    67   ar
    84   152   148   am
    85    96    95   ar
    86    96    98   ar
    87    47    46   ar
    88    95    97   ar
    89   114   113    1
    90    58    50   am
    91    39    41   ar
    92    39    38    1
    93    71    69   ar
    94    41    44   ar
    95    64    66   ar
    96   149   148    2
    97    67    69   ar
    98    67    66   ar
    99   148   147    1
   100   116   113    1
   101   116   117    1
   102    35    38    1
   103    35    34    1
   104    46    44   ar
   105    98   100   ar
   106    97    99   ar
   107   113   112    1
   108   136   137    1
   109   136   133    1
   110    50    51    2
   111    50    49    1
   112   137   138   ar
   113   137   139   ar
   114   117   119   am
   115   117   118    2
   116   138   140   ar
   117   142   139   ar
   118   142   144   ar
   119   139   141   ar
   120    48    49    1
   121   147   150    1
   122   147   146    1
   123   100    99   ar
   124   135   134    2
   125   144   145   ar
   126    21    19    1
   127   140   141   ar
   128   133   134    1
   129   133   132    1
   130   141   143   ar
   131    49    52    1
   132    52    53    1
   133   145   143   ar
   134   150   151    1
   135    53    55   ar
   136    53    54   ar
   137    19    20    1
   138    19    16    1
   139    55    57   ar
   140   131   130    1
   141    54    56   ar
   142    57    56   ar
   143    16    15    1
   144    16    17    1
   145   130   129   ar
   146   130   128   ar
   147    18    17    2
   148    17    22   am
   149   129   127   ar
   150    12    14   ar
   151    12    10   ar
   152   128   126   ar
   153    14    13   ar
   154    22    23    1
   155    10     9   ar
   156    10     8   ar
   157     9     7   ar
   158   127   125   ar
   159    13    11   ar
   160    30    28   ar
   161    30    32   ar
   162   126   125   ar
   163    28    27   ar
   164    23    24    1
   165    23    26    1
   166     8    11   ar
   167     8     6   ar
   168     7     6   ar
   169    33    32    1
   170   125   124    1
   171    32    31   ar
   172    24    25    2
   173     6     5    1
   174    27    26    1
   175    27    29   ar
   176   124   121    1
   177    31    29   ar
   178     5     2    1
   179   123   122    2
   180   122   121    1
   181   120   121    1
   182     2     3    1
   183     2     1    1
   184     3     4    2
