@<TRIPOS>MOLECULE
tmp/1us2A00.pdb
 158 155 0 0 0
SMALL
GASTEIGER

@<TRIPOS>ATOM
      1  N         26.5120   51.3590  124.1380 N.3   170  ASP170     -0.1239
      2  CA        25.2060   50.6850  124.2530 C.3   170  ASP170      0.1674
      3  C         24.5940   50.2930  122.9040 C.2   170  ASP170      0.2266
      4  O         23.5960   49.5650  122.8710 O.2   170  ASP170     -0.2867
      5  CB        24.2060   51.5480  125.0450 C.3   170  ASP170      0.1410
      6  CG        23.9880   52.9130  124.4180 C.2   170  ASP170      0.3668
      7  OD1       24.9660   53.6870  124.3120 O.co2 170  ASP170     -0.2456
      8  OD2       22.8700   53.2900  124.0040 O.co2 170  ASP170     -0.2456
      9  N         22.9700   59.0090  125.5910 N.3   196  GLY196     -0.1210
     10  CA        21.6400   58.4400  125.6350 C.3   196  GLY196      0.1956
     11  C         21.4440   57.4330  126.7570 C.2   196  GLY196      0.2611
     12  O         20.3440   57.3300  127.2870 O.2   196  GLY196     -0.2717
     13  N         22.4900   56.6780  127.0930 N.am  197  ASN197     -0.1974
     14  CA        22.3990   55.6790  128.1690 C.3   197  ASN197      0.1688
     15  C         23.6190   55.5570  129.0830 C.2   197  ASN197      0.2292
     16  O         23.4520   55.1870  130.2290 O.2   197  ASN197     -0.2864
     17  CB        22.1270   54.2760  127.5990 C.3   197  ASN197      0.1181
     18  CG        20.6880   54.0980  127.1230 C.2   197  ASN197      0.2629
     19  OD1       19.7260   54.1910  127.9070 O.2   197  ASN197     -0.2716
     20  ND2       20.5400   53.8200  125.8340 N.am  197  ASN197     -0.0877
     21  N         23.9890   56.7470  132.8640 N.3   200  LYS200     -0.1245
     22  CA        22.9170   56.3750  133.8070 C.3   200  LYS200      0.1561
     23  C         23.4610   55.4690  134.9320 C.2   200  LYS200      0.2260
     24  O         24.6590   55.1620  134.9660 O.2   200  LYS200     -0.2867
     25  CB        21.7180   55.7430  133.0560 C.3   200  LYS200      0.0271
     26  CG        20.9560   56.7790  132.2290 C.3   200  LYS200      0.0035
     27  CD        20.0200   56.0770  131.1660 C.3   200  LYS200      0.0206
     28  CE        19.2070   57.1710  130.3930 C.3   200  LYS200      0.1093
     29  NZ        18.3430   56.5840  129.2770 N.3   200  LYS200     -0.1314
     30  N         25.2900   51.8330  134.7310 N.3   203  TYR203     -0.1241
     31  CA        26.4450   52.0170  133.8120 C.3   203  TYR203      0.1605
     32  C         27.6360   52.6630  134.5230 C.2   203  TYR203      0.2264
     33  O         28.7780   52.2440  134.2990 O.2   203  TYR203     -0.2867
     34  CB        26.0920   52.8880  132.6040 C.3   203  TYR203      0.0534
     35  CG        25.0120   52.3190  131.6980 C.ar  203  TYR203     -0.0201
     36  CD1       23.6520   52.5640  131.9580 C.ar  203  TYR203     -0.0009
     37  CD2       25.3460   51.5870  130.5750 C.ar  203  TYR203     -0.0009
     38  CE1       22.6390   52.0420  131.1150 C.ar  203  TYR203      0.0417
     39  CE2       24.3440   51.0750  129.7010 C.ar  203  TYR203      0.0417
     40  CZ        23.0090   51.3110  129.9770 C.ar  203  TYR203      0.1957
     41  OH        22.0310   50.8310  129.0980 O.3   203  TYR203     -0.2866
     42  N         23.4850   63.0840  132.0870 N.3   233  HIS233     -0.1241
     43  CA        22.1470   62.4640  132.1930 C.3   233  HIS233      0.1621
     44  C         22.3340   60.9930  132.6150 C.2   233  HIS233      0.2264
     45  O         22.9360   60.2440  131.8550 O.2   233  HIS233     -0.2867
     46  CB        21.4550   62.5630  130.8040 C.3   233  HIS233      0.0745
     47  CG        20.0760   61.9530  130.7510 C.ar  233  HIS233      0.0817
     48  ND1       18.9710   62.5540  131.3250 N.ar  233  HIS233     -0.2268
     49  CD2       19.6330   60.7970  130.1980 C.ar  233  HIS233      0.1154
     50  CE1       17.9100   61.7880  131.1320 C.ar  233  HIS233      0.1986
     51  NE2       18.2830   60.7180  130.4480 N.ar  233  HIS233     -0.2212
     52  N         17.3340   58.0080  138.7810 N.3   237  TRP237     -0.1241
     53  CA        16.1910   57.6540  137.8930 C.3   237  TRP237      0.1605
     54  C         15.7290   56.2710  138.2640 C.2   237  TRP237      0.2264
     55  O         16.5650   55.3840  138.4830 O.2   237  TRP237     -0.2867
     56  CB        16.6440   57.6270  136.4150 C.3   237  TRP237      0.0550
     57  CG        15.4950   57.4510  135.3510 C.ar  237  TRP237      0.0003
     58  CD1       14.1670   57.8730  135.4500 C.ar  237  TRP237      0.0946
     59  CD2       15.6150   56.8440  134.0430 C.ar  237  TRP237      0.0152
     60  NE1       13.4870   57.5600  134.2820 N.ar  237  TRP237     -0.2442
     61  CE2       14.3500   56.9320  133.4090 C.ar  237  TRP237      0.0810
     62  CE3       16.6810   56.2380  133.3360 C.ar  237  TRP237      0.0012
     63  CZ2       14.1180   56.4270  132.1100 C.ar  237  TRP237      0.0191
     64  CZ3       16.4540   55.7190  132.0650 C.ar  237  TRP237      0.0001
     65  CH2       15.1770   55.8290  131.4490 C.ar  237  TRP237      0.0015
     66  N         15.8460   48.8980  134.3080 N.3   241  TYR241     -0.1241
     67  CA        17.0050   48.3840  133.5700 C.3   241  TYR241      0.1605
     68  C         18.3380   49.0190  133.9780 C.2   241  TYR241      0.2264
     69  O         19.4010   48.4130  133.7690 O.2   241  TYR241     -0.2867
     70  CB        16.7970   48.4960  132.0540 C.3   241  TYR241      0.0534
     71  CG        17.1440   49.8690  131.4690 C.ar  241  TYR241     -0.0201
     72  CD1       16.2440   50.9260  131.5560 C.ar  241  TYR241     -0.0009
     73  CD2       18.3590   50.0840  130.7830 C.ar  241  TYR241     -0.0009
     74  CE1       16.5610   52.1940  130.9960 C.ar  241  TYR241      0.0417
     75  CE2       18.6730   51.3300  130.2110 C.ar  241  TYR241      0.0417
     76  CZ        17.7730   52.3670  130.3190 C.ar  241  TYR241      0.1957
     77  OH        18.0680   53.6010  129.7700 O.3   241  TYR241     -0.2866
     78  N         15.5860   62.5490  137.5930 N.3   285  ASN285     -0.1225
     79  CA        14.8790   62.3690  136.3230 C.3   285  ASN285      0.1785
     80  C         13.5510   61.6700  136.6100 C.2   285  ASN285      0.2597
     81  O         13.5330   60.6110  137.2630 O.2   285  ASN285     -0.2718
     82  CB        15.7580   61.5030  135.3760 C.3   285  ASN285      0.1169
     83  CG        15.2950   61.5550  133.9160 C.2   285  ASN285      0.2627
     84  OD1       15.0290   62.6210  133.3830 O.2   285  ASN285     -0.2716
     85  ND2       15.2250   60.4000  133.2650 N.am  285  ASN285     -0.0877
     86  N         12.4480   62.2960  136.1730 N.am  286  ALA286     -0.1979
     87  CA        11.1470   61.6170  136.0170 C.3   286  ALA286      0.1597
     88  C         10.6430   60.9120  137.2920 C.2   286  ALA286      0.2287
     89  O         10.2750   59.7390  137.2660 O.2   286  ALA286     -0.2864
     90  CB        11.2030   60.6210  134.7790 C.3   286  ALA286      0.0319
     91  N          9.0200   64.2650  131.5130 N.3   335  TYR335     -0.1241
     92  CA         8.1080   64.2480  130.3500 C.3   335  TYR335      0.1605
     93  C          6.6760   64.5640  130.7830 C.2   335  TYR335      0.2264
     94  O          6.3190   64.3800  131.9540 O.2   335  TYR335     -0.2867
     95  CB         8.1590   62.8700  129.6370 C.3   335  TYR335      0.0534
     96  CG         7.6560   61.6870  130.4640 C.ar  335  TYR335     -0.0201
     97  CD1        8.5030   61.0330  131.3670 C.ar  335  TYR335     -0.0009
     98  CD2        6.3250   61.2060  130.3270 C.ar  335  TYR335     -0.0009
     99  CE1        8.0380   59.9340  132.1440 C.ar  335  TYR335      0.0417
    100  CE2        5.8670   60.0840  131.0920 C.ar  335  TYR335      0.0417
    101  CZ         6.7420   59.4660  131.9910 C.ar  335  TYR335      0.1957
    102  OH         6.3400   58.3680  132.7580 O.3   335  TYR335     -0.2866
    103  N         11.4930   67.5660  128.7200 N.3   367  GLN367     -0.1245
    104  CA        11.9310   66.5720  127.7300 C.3   367  GLN367      0.1566
    105  C         11.3060   66.8320  126.3490 C.2   367  GLN367      0.2260
    106  O         11.9890   66.7060  125.3110 O.2   367  GLN367     -0.2867
    107  CB        11.5820   65.1570  128.2400 C.3   367  GLN367      0.0367
    108  CG        12.4350   64.7050  129.4640 C.3   367  GLN367      0.0905
    109  CD        12.0860   63.2680  129.9360 C.2   367  GLN367      0.2608
    110  OE1       11.3440   62.5130  129.2540 O.2   367  GLN367     -0.2717
    111  NE2       12.5950   62.8990  131.1140 N.am  367  GLN367     -0.0878
    112  N          8.8730   65.2770  124.5350 N.3   369  HIS369     -0.1241
    113  CA         8.5050   64.1840  123.6160 C.3   369  HIS369      0.1621
    114  C          7.0680   64.3930  123.1260 C.2   369  HIS369      0.2264
    115  O          6.1220   63.8590  123.7020 O.2   369  HIS369     -0.2867
    116  CB         8.6640   62.8050  124.3180 C.3   369  HIS369      0.0745
    117  CG        10.0950   62.4590  124.6460 C.ar  369  HIS369      0.0817
    118  ND1       11.0400   62.1870  123.6720 N.ar  369  HIS369     -0.2268
    119  CD2       10.7370   62.3370  125.8430 C.ar  369  HIS369      0.1154
    120  CE1       12.2060   61.9310  124.2510 C.ar  369  HIS369      0.1986
    121  NE2       12.0560   62.0330  125.5710 N.ar  369  HIS369     -0.2212
    122  N         15.0640   66.8130  125.3110 N.3   398  GLU398     -0.1245
    123  CA        14.8970   65.5420  124.5650 C.3   398  GLU398      0.1567
    124  C         13.8750   65.6320  123.4180 C.2   398  GLU398      0.2260
    125  O         13.0980   64.7020  123.1880 O.2   398  GLU398     -0.2867
    126  CB        14.5280   64.3640  125.5040 C.3   398  GLU398      0.0388
    127  CG        15.2520   64.3470  126.8750 C.3   398  GLU398      0.1160
    128  CD        15.0000   63.0910  127.7200 C.2   398  GLU398      0.3649
    129  OE1       14.2610   62.1650  127.2910 O.co2 398  GLU398     -0.2457
    130  OE2       15.5740   63.0250  128.8420 O.co2 398  GLU398     -0.2457
    131  N         16.4030   64.3890  120.7160 N.3   453  TRP453     -0.1241
    132  CA        16.7060   63.0480  121.2570 C.3   453  TRP453      0.1605
    133  C         17.1030   62.0430  120.1540 C.2   453  TRP453      0.2264
    134  O         16.4210   61.0170  119.9340 O.2   453  TRP453     -0.2867
    135  CB        15.5660   62.5180  122.1640 C.3   453  TRP453      0.0550
    136  CG        16.0590   61.4620  123.2050 C.ar  453  TRP453      0.0003
    137  CD1       15.7380   60.1190  123.2480 C.ar  453  TRP453      0.0946
    138  CD2       16.9520   61.6950  124.2980 C.ar  453  TRP453      0.0152
    139  NE1       16.3640   59.5180  124.3200 N.ar  453  TRP453     -0.2442
    140  CE2       17.1170   60.4590  124.9840 C.ar  453  TRP453      0.0810
    141  CE3       17.6140   62.8430  124.8000 C.ar  453  TRP453      0.0012
    142  CZ2       17.9330   60.3300  126.1310 C.ar  453  TRP453      0.0191
    143  CZ3       18.4160   62.7170  125.9510 C.ar  453  TRP453      0.0001
    144  CH2       18.5830   61.4690  126.5960 C.ar  453  TRP453      0.0015
    145  N         14.4480   55.8830  119.6800 N.3   461  TRP461     -0.1241
    146  CA        13.9390   55.0930  120.8010 C.3   461  TRP461      0.1605
    147  C         12.4280   54.8430  120.7110 C.2   461  TRP461      0.2264
    148  O         11.9220   53.8570  121.2700 O.2   461  TRP461     -0.2867
    149  CB        14.2830   55.7400  122.1510 C.3   461  TRP461      0.0550
    150  CG        13.3880   56.9320  122.5380 C.ar  461  TRP461      0.0003
    151  CD1       13.2610   58.1340  121.8730 C.ar  461  TRP461      0.0946
    152  CD2       12.4660   56.9920  123.6460 C.ar  461  TRP461      0.0152
    153  NE1       12.3380   58.9350  122.5110 N.ar  461  TRP461     -0.2442
    154  CE2       11.8410   58.2680  123.6050 C.ar  461  TRP461      0.0810
    155  CE3       12.0920   56.0770  124.6630 C.ar  461  TRP461      0.0012
    156  CZ2       10.8760   58.6780  124.5620 C.ar  461  TRP461      0.0191
    157  CZ3       11.1340   56.4720  125.6180 C.ar  461  TRP461      0.0001
    158  CH2       10.5480   57.7770  125.5640 C.ar  461  TRP461      0.0015
@<TRIPOS>BOND
     1   145   146    1
     2   134   133    2
     3   133   132    1
     4   147   146    1
     5   147   148    2
     6   131   132    1
     7   146   149    1
     8   132   135    1
     9   151   153   ar
    10   151   150   ar
    11   149   150    1
    12   135   136    1
    13   153   154   ar
    14   150   152   ar
    15     4     3    2
    16     3     2    1
    17   114   113    1
    18   114   115    2
    19   125   124    2
    20   136   137   ar
    21   136   138   ar
    22   137   139   ar
    23   124   123    1
    24   154   152   ar
    25   154   156   ar
    26   113   116    1
    27   113   112    1
    28   152   155   ar
    29   118   120   ar
    30   118   117   ar
    31     8     6   ar
    32     1     2    1
    33   120   121   ar
    34     2     5    1
    35   138   141   ar
    36   138   140   ar
    37     7     6   ar
    38   116   117    1
    39   139   140   ar
    40     6     5    1
    41   156   158   ar
    42   123   122    1
    43   123   126    1
    44   117   119   ar
    45   155   157   ar
    46   141   143   ar
    47   140   142   ar
    48   106   105    2
    49   126   127    1
    50   158   157   ar
    51   121   119   ar
    52     9    10    1
    53    10    11    1
    54    20    18   am
    55   143   144   ar
    56   142   144   ar
    57   105   104    1
    58    11    13   am
    59    11    12    2
    60   127   128    1
    61    13    14    1
    62    18    17    1
    63    18    19    2
    64   129   128   ar
    65    17    14    1
    66   128   130   ar
    67   104   107    1
    68   104   103    1
    69    14    15    1
    70   107   108    1
    71    15    16    2
    72    41    40    1
    73   110   109    2
    74    29    28    1
    75   108   109    1
    76    95    92    1
    77    95    96    1
    78    39    40   ar
    79    39    37   ar
    80    77    76    1
    81   109   111   am
    82    40    38   ar
    83    49    51   ar
    84    49    47   ar
    85    75    76   ar
    86    75    73   ar
    87    76    74   ar
    88    98    96   ar
    89    98   100   ar
    90    92    93    1
    91    92    91    1
    92    28    27    1
    93    51    50   ar
    94    96    97   ar
    95    37    35   ar
    96    47    46    1
    97    47    48   ar
    98    93    94    2
    99    73    71   ar
   100    46    43    1
   101    74    72   ar
   102   100   101   ar
   103    38    36   ar
   104    50    48   ar
   105    27    26    1
   106    97    99   ar
   107    65    64   ar
   108    65    63   ar
   109    71    72   ar
   110    71    70    1
   111    35    36   ar
   112    35    34    1
   113    45    44    2
   114   101    99   ar
   115   101   102    1
   116    70    67    1
   117    64    62   ar
   118    42    43    1
   119    63    61   ar
   120    43    44    1
   121    26    25    1
   122    34    31    1
   123    21    22    1
   124    25    22    1
   125    85    83   am
   126    62    59   ar
   127    84    83    2
   128    61    59   ar
   129    61    60   ar
   130    67    68    1
   131    67    66    1
   132    69    68    2
   133    22    23    1
   134    31    32    1
   135    31    30    1
   136    83    82    1
   137    59    57   ar
   138    60    58   ar
   139    33    32    2
   140    90    87    1
   141    23    24    2
   142    57    58   ar
   143    57    56    1
   144    82    79    1
   145    87    86    1
   146    87    88    1
   147    86    80   am
   148    79    80    1
   149    79    78    1
   150    56    53    1
   151    80    81    2
   152    89    88    2
   153    53    54    1
   154    53    52    1
   155    54    55    2
