@<TRIPOS>MOLECULE
tmp/1us2A01.pdb
 98 94 0 0 0
SMALL
GASTEIGER

@<TRIPOS>ATOM
      1  N          8.0230   35.9080   77.0350 N.3    12  ASN12      -0.1225
      2  CA         8.1740   37.0500   76.1310 C.3    12  ASN12       0.1785
      3  C          9.1500   36.7900   74.9870 C.2    12  ASN12       0.2597
      4  O         10.2300   36.2150   75.1940 O.2    12  ASN12      -0.2718
      5  CB         8.6280   38.3020   76.8960 C.3    12  ASN12       0.1169
      6  CG         8.4670   39.5830   76.0800 C.2    12  ASN12       0.2627
      7  OD1        7.3480   39.9960   75.7700 O.2    12  ASN12      -0.2716
      8  ND2        9.5870   40.2170   75.7350 N.am   12  ASN12      -0.0877
      9  N          8.7520   37.2190   73.7900 N.am   13  ALA13      -0.1966
     10  CA         9.6150   37.2520   72.6170 C.3    13  ALA13       0.1728
     11  C          9.7770   38.7050   72.1750 C.2    13  ALA13       0.2616
     12  O          8.8150   39.3270   71.7110 O.2    13  ALA13      -0.2715
     13  CB         9.0040   36.4080   71.4760 C.3    13  ALA13       0.0334
     14  N         10.9780   39.2560   72.3260 N.am   14  SER14      -0.1950
     15  CA        11.2380   40.6180   71.8600 C.3    14  SER14       0.1924
     16  C         11.8280   40.6260   70.4470 C.2    14  SER14       0.2314
     17  O         12.0860   41.6920   69.8830 O.2    14  SER14      -0.2863
     18  CB        12.1230   41.3960   72.8540 C.3    14  SER14       0.2116
     19  OG        13.4670   40.9520   72.8340 O.3    14  SER14      -0.2180
     20  N         20.5100   39.0860   79.3810 N.3    73  GLN73      -0.1245
     21  CA        20.2100   40.5020   79.4730 C.3    73  GLN73       0.1566
     22  C         19.0030   40.7920   80.3800 C.2    73  GLN73       0.2260
     23  O         17.8540   40.5220   80.0020 O.2    73  GLN73      -0.2867
     24  CB        19.9920   41.0770   78.0740 C.3    73  GLN73       0.0367
     25  CG        20.1540   42.5810   77.9850 C.3    73  GLN73       0.0905
     26  CD        19.4060   43.2040   76.8080 C.2    73  GLN73       0.2608
     27  OE1       19.1330   42.5370   75.8000 O.2    73  GLN73      -0.2717
     28  NE2       19.0830   44.4920   76.9320 N.am   73  GLN73      -0.0878
     29  N         11.1210   47.8500   79.9490 N.3    77  GLN77      -0.1245
     30  CA        10.5940   48.6610   78.8430 C.3    77  GLN77       0.1566
     31  C          9.1570   49.1450   79.0990 C.2    77  GLN77       0.2260
     32  O          8.4060   48.5240   79.8620 O.2    77  GLN77      -0.2867
     33  CB        10.7130   47.9040   77.4940 C.3    77  GLN77       0.0367
     34  CG         9.6120   46.8720   77.2080 C.3    77  GLN77       0.0905
     35  CD         9.9180   45.9640   76.0150 C.2    77  GLN77       0.2608
     36  OE1        9.9060   44.7370   76.1510 O.2    77  GLN77      -0.2717
     37  NE2       10.1870   46.5600   74.8510 N.am   77  GLN77      -0.0878
     38  N          7.2570   50.4730   73.2310 N.3    82  TRP82      -0.1227
     39  CA         8.1770   49.3410   73.3700 C.3    82  TRP82       0.1737
     40  C          9.6550   49.6570   73.1330 C.2    82  TRP82       0.2596
     41  O         10.5240   49.0600   73.7720 O.2    82  TRP82      -0.2718
     42  CB         7.7310   48.1700   72.4790 C.3    82  TRP82       0.0564
     43  CG         6.3080   47.7270   72.7040 C.ar   82  TRP82       0.0003
     44  CD1        5.2260   48.0040   71.9120 C.ar   82  TRP82       0.0946
     45  CD2        5.8140   46.9250   73.7850 C.ar   82  TRP82       0.0152
     46  NE1        4.0920   47.4260   72.4350 N.ar   82  TRP82      -0.2442
     47  CE2        4.4220   46.7560   73.5840 C.ar   82  TRP82       0.0810
     48  CE3        6.4060   46.3220   74.9060 C.ar   82  TRP82       0.0012
     49  CZ2        3.6140   46.0230   74.4670 C.ar   82  TRP82       0.0191
     50  CZ3        5.6020   45.5870   75.7800 C.ar   82  TRP82       0.0001
     51  CH2        4.2220   45.4450   75.5530 C.ar   82  TRP82       0.0015
     52  N          9.9340   50.5910   72.2260 N.am   83  SER83      -0.1952
     53  CA        11.3130   50.9730   71.8930 C.3    83  SER83       0.1924
     54  C         12.0720   51.6980   73.0300 C.2    83  SER83       0.2314
     55  O         13.3070   51.6870   73.0580 O.2    83  SER83      -0.2863
     56  CB        11.3420   51.8090   70.6030 C.3    83  SER83       0.2116
     57  OG        11.3780   53.1980   70.8840 O.3    83  SER83      -0.2180
     58  N         18.4090   49.1920   78.2340 N.3    87  TRP87      -0.1241
     59  CA        18.9870   48.1540   77.3720 C.3    87  TRP87       0.1605
     60  C         20.4870   47.9160   77.6020 C.2    87  TRP87       0.2264
     61  O         21.1100   47.1310   76.8790 O.2    87  TRP87      -0.2867
     62  CB        18.7730   48.5140   75.8990 C.3    87  TRP87       0.0550
     63  CG        17.3460   48.8110   75.4880 C.ar   87  TRP87       0.0003
     64  CD1       16.8560   50.0070   75.0240 C.ar   87  TRP87       0.0946
     65  CD2       16.2400   47.8950   75.4700 C.ar   87  TRP87       0.0152
     66  NE1       15.5180   49.8900   74.7290 N.ar   87  TRP87      -0.2442
     67  CE2       15.1120   48.6060   74.9910 C.ar   87  TRP87       0.0810
     68  CE3       16.0840   46.5400   75.8070 C.ar   87  TRP87       0.0012
     69  CZ2       13.8500   48.0090   74.8460 C.ar   87  TRP87       0.0191
     70  CZ3       14.8200   45.9460   75.6620 C.ar   87  TRP87       0.0001
     71  CH2       13.7260   46.6830   75.1860 C.ar   87  TRP87       0.0015
     72  N          7.1100   46.8150   81.8030 N.3   121  GLN121     -0.1245
     73  CA         7.4360   45.4050   81.6850 C.3   121  GLN121      0.1566
     74  C          8.9150   45.2250   82.0300 C.2   121  GLN121      0.2260
     75  O          9.7700   45.8950   81.4380 O.2   121  GLN121     -0.2867
     76  CB         7.1440   44.9320   80.2550 C.3   121  GLN121      0.0367
     77  CG         7.2910   43.4430   80.0260 C.3   121  GLN121      0.0905
     78  CD         6.8180   43.0170   78.6430 C.2   121  GLN121      0.2608
     79  OE1        5.7060   42.5110   78.4950 O.2   121  GLN121     -0.2717
     80  NE2        7.6580   43.2240   77.6320 N.am  121  GLN121     -0.0878
     81  N         16.1970   38.1400   79.3930 N.3   125  GLN125     -0.1245
     82  CA        16.1330   37.4300   78.1100 C.3   125  GLN125      0.1566
     83  C         17.5040   36.9270   77.6730 C.2   125  GLN125      0.2260
     84  O         18.5350   37.4310   78.1240 O.2   125  GLN125     -0.2867
     85  CB        15.5440   38.3340   77.0220 C.3   125  GLN125      0.0367
     86  CG        16.3880   39.5840   76.6900 C.3   125  GLN125      0.0905
     87  CD        15.6760   40.5410   75.7430 C.2   125  GLN125      0.2608
     88  OE1       14.4970   40.3570   75.4540 O.2   125  GLN125     -0.2717
     89  NE2       16.3930   41.5550   75.2530 N.am  125  GLN125     -0.0878
     90  N         20.4530   36.3340   74.7960 N.3   127  LYS127     -0.1245
     91  CA        20.9920   37.0040   73.6070 C.3   127  LYS127      0.1561
     92  C         22.0860   36.1610   72.9410 C.2   127  LYS127      0.2260
     93  O         23.0190   35.7110   73.6020 O.2   127  LYS127     -0.2867
     94  CB        21.5370   38.3990   73.9580 C.3   127  LYS127      0.0271
     95  CG        20.5170   39.3790   74.5860 C.3   127  LYS127      0.0035
     96  CD        19.4680   39.9210   73.5910 C.3   127  LYS127      0.0206
     97  CE        20.0960   40.6280   72.3910 C.3   127  LYS127      0.1093
     98  NZ        19.0600   41.1800   71.4650 N.3   127  LYS127     -0.1314
@<TRIPOS>BOND
     1    17    16    2
     2    16    15    1
     3    56    57    1
     4    56    53    1
     5    98    97    1
     6    13    10    1
     7    12    11    2
     8    15    14    1
     9    15    18    1
    10    53    52    1
    11    53    54    1
    12    44    46   ar
    13    44    43   ar
    14    11    14   am
    15    11    10    1
    16    52    40   am
    17    97    96    1
    18    46    47   ar
    19    42    43    1
    20    42    39    1
    21    10     9    1
    22    43    45   ar
    23    19    18    1
    24    92    93    2
    25    92    91    1
    26    54    55    2
    27    40    39    1
    28    40    41    2
    29    38    39    1
    30    47    45   ar
    31    47    49   ar
    32    96    95    1
    33    91    94    1
    34    91    90    1
    35    45    48   ar
    36     9     3   am
    37    94    95    1
    38    49    51   ar
    39    66    67   ar
    40    66    64   ar
    41    69    67   ar
    42    69    71   ar
    43    37    35   am
    44    48    50   ar
    45     3     4    2
    46     3     2    1
    47    67    65   ar
    48    64    63   ar
    49    71    70   ar
    50    89    87   am
    51    88    87    2
    52    65    63   ar
    53    65    68   ar
    54    63    62    1
    55    51    50   ar
    56    70    68   ar
    57     8     6   am
    58    87    86    1
    59     7     6    2
    60    27    26    2
    61    62    59    1
    62    35    36    2
    63    35    34    1
    64     6     5    1
    65     2     5    1
    66     2     1    1
    67    86    85    1
    68    26    28   am
    69    26    25    1
    70    61    60    2
    71    85    82    1
    72    34    33    1
    73    59    60    1
    74    59    58    1
    75    33    30    1
    76    80    78   am
    77    83    82    1
    78    83    84    2
    79    25    24    1
    80    24    21    1
    81    82    81    1
    82    79    78    2
    83    78    77    1
    84    30    31    1
    85    30    29    1
    86    31    32    2
    87    20    21    1
    88    21    22    1
    89    23    22    2
    90    77    76    1
    91    76    73    1
    92    75    74    2
    93    73    72    1
    94    73    74    1
