@<TRIPOS>MOLECULE
tmp/1us3A00.pdb
 118 117 0 0 0
SMALL
GASTEIGER

@<TRIPOS>ATOM
      1  N         24.0670   55.0510  134.5600 N.3   175  LYS175     -0.1245
      2  CA        22.9840   54.7070  135.4950 C.3   175  LYS175      0.1561
      3  C         23.5710   53.9590  136.7000 C.2   175  LYS175      0.2260
      4  O         24.7560   53.6300  136.7000 O.2   175  LYS175     -0.2867
      5  CB        21.8980   53.9010  134.7740 C.3   175  LYS175      0.0271
      6  CG        21.1730   54.7890  133.7580 C.3   175  LYS175      0.0035
      7  CD        20.2220   53.9790  132.8900 C.3   175  LYS175      0.0206
      8  CE        19.5420   54.9510  131.8740 C.3   175  LYS175      0.1093
      9  NZ        18.6580   54.2300  130.9420 N.3   175  LYS175     -0.1314
     10  N         23.5800   61.1090  133.4900 N.3   208  HIS208     -0.1241
     11  CA        22.2470   60.4790  133.6070 C.3   208  HIS208      0.1621
     12  C         22.4670   59.0710  134.1990 C.2   208  HIS208      0.2264
     13  O         23.0350   58.2290  133.5270 O.2   208  HIS208     -0.2867
     14  CB        21.6480   60.4360  132.1750 C.3   208  HIS208      0.0745
     15  CG        20.3360   59.7270  132.0630 C.ar  208  HIS208      0.0817
     16  ND1       19.1650   60.2480  132.5630 N.ar  208  HIS208     -0.2268
     17  CD2       20.0020   58.5580  131.4650 C.ar  208  HIS208      0.1154
     18  CE1       18.1700   59.4140  132.3090 C.ar  208  HIS208      0.1986
     19  NE2       18.6510   58.3790  131.6480 N.ar  208  HIS208     -0.2212
     20  N         17.6250   56.7000  140.4540 N.3   212  TRP212     -0.1241
     21  CA        16.4900   56.3460  139.5980 C.3   212  TRP212      0.1605
     22  C         15.9770   54.9720  140.0130 C.2   212  TRP212      0.2264
     23  O         16.7720   54.0990  140.2190 O.2   212  TRP212     -0.2867
     24  CB        16.9490   56.2360  138.1280 C.3   212  TRP212      0.0550
     25  CG        15.8040   55.9690  137.1760 C.ar  212  TRP212      0.0003
     26  CD1       14.4980   56.3780  137.2980 C.ar  212  TRP212      0.0946
     27  CD2       15.8860   55.2680  135.9090 C.ar  212  TRP212      0.0152
     28  NE1       13.7820   55.9610  136.1880 N.ar  212  TRP212     -0.2442
     29  CE2       14.6100   55.2710  135.3410 C.ar  212  TRP212      0.0810
     30  CE3       16.9270   54.6150  135.2220 C.ar  212  TRP212      0.0012
     31  CZ2       14.3410   54.6880  134.0780 C.ar  212  TRP212      0.0191
     32  CZ3       16.6580   53.9820  133.9910 C.ar  212  TRP212      0.0001
     33  CH2       15.3830   54.0250  133.4340 C.ar  212  TRP212      0.0015
     34  N         15.9710   47.4650  136.7820 N.3   216  TYR216     -0.1241
     35  CA        17.1210   46.8830  136.0730 C.3   216  TYR216      0.1605
     36  C         18.4600   47.5640  136.3370 C.2   216  TYR216      0.2264
     37  O         19.5030   46.9250  136.1440 O.2   216  TYR216     -0.2867
     38  CB        16.9060   46.8240  134.5550 C.3   216  TYR216      0.0534
     39  CG        17.2930   48.0780  133.8090 C.ar  216  TYR216     -0.0201
     40  CD1       16.4610   49.1830  133.8160 C.ar  216  TYR216     -0.0009
     41  CD2       18.4890   48.1540  133.0900 C.ar  216  TYR216     -0.0009
     42  CE1       16.7840   50.3400  133.1320 C.ar  216  TYR216      0.0417
     43  CE2       18.8320   49.3110  132.4060 C.ar  216  TYR216      0.0417
     44  CZ        17.9750   50.3850  132.4230 C.ar  216  TYR216      0.1957
     45  OH        18.2670   51.5240  131.7630 O.3   216  TYR216     -0.2866
     46  N         15.7610   61.0380  138.9570 N.3   260  ASN260     -0.1225
     47  CA        14.9990   60.7760  137.7460 C.3   260  ASN260      0.1785
     48  C         13.6930   60.0520  138.1420 C.2   260  ASN260      0.2597
     49  O         13.7090   59.0530  138.8930 O.2   260  ASN260     -0.2718
     50  CB        15.8580   59.8900  136.8160 C.3   260  ASN260      0.1169
     51  CG        15.3410   59.8530  135.3510 C.2   260  ASN260      0.2627
     52  OD1       14.9910   60.8840  134.7920 O.2   260  ASN260     -0.2716
     53  ND2       15.3500   58.6690  134.7280 N.am  260  ASN260     -0.0877
     54  N         12.5550   60.6130  137.7090 N.am  261  GLU261     -0.1979
     55  CA        11.2690   59.9080  137.7350 C.3   261  GLU261      0.1602
     56  C         10.8190   59.4800  139.1290 C.2   261  GLU261      0.2287
     57  O         10.3800   58.3310  139.2870 O.2   261  GLU261     -0.2864
     58  CB        11.3380   58.6620  136.8240 C.3   261  GLU261      0.0415
     59  CG        11.5960   59.0070  135.3470 C.3   261  GLU261      0.1163
     60  CD        11.7000   57.7910  134.4350 C.2   261  GLU261      0.3649
     61  OE1       11.3950   56.6570  134.8950 O.co2 261  GLU261     -0.2457
     62  OE2       12.0420   57.9730  133.2430 O.co2 261  GLU261     -0.2457
     63  N         11.7990   65.3830  129.9450 N.3   342  GLN342     -0.1245
     64  CA        12.2220   64.3500  129.0100 C.3   342  GLN342      0.1566
     65  C         11.5790   64.6180  127.6870 C.2   342  GLN342      0.2260
     66  O         12.2370   64.4450  126.6470 O.2   342  GLN342     -0.2867
     67  CB        11.8130   62.9620  129.5300 C.3   342  GLN342      0.0367
     68  CG        12.6310   62.5660  130.7970 C.3   342  GLN342      0.0905
     69  CD        12.2740   61.1690  131.2620 C.2   342  GLN342      0.2608
     70  OE1       11.6580   60.4190  130.5110 O.2   342  GLN342     -0.2717
     71  NE2       12.6170   60.8350  132.5040 N.am  342  GLN342     -0.0878
     72  N          9.0840   63.0510  125.8920 N.3   344  HIS344     -0.1241
     73  CA         8.7450   61.9330  125.0190 C.3   344  HIS344      0.1621
     74  C          7.3100   62.1590  124.5720 C.2   344  HIS344      0.2264
     75  O          6.3690   61.7360  125.2370 O.2   344  HIS344     -0.2867
     76  CB         8.9120   60.6210  125.7870 C.3   344  HIS344      0.0745
     77  CG        10.3420   60.3320  126.1440 C.ar  344  HIS344      0.0817
     78  ND1       11.2980   60.0790  125.1840 N.ar  344  HIS344     -0.2268
     79  CD2       10.9660   60.2250  127.3450 C.ar  344  HIS344      0.1154
     80  CE1       12.4570   59.8270  125.7730 C.ar  344  HIS344      0.1986
     81  NE2       12.2880   59.9160  127.0900 N.ar  344  HIS344     -0.2212
     82  N         15.3060   64.4810  126.6900 N.3   373  GLU373     -0.1245
     83  CA        15.1500   63.1950  126.0110 C.3   373  GLU373      0.1567
     84  C         14.1440   63.2460  124.8530 C.2   373  GLU373      0.2260
     85  O         13.3520   62.3250  124.6310 O.2   373  GLU373     -0.2867
     86  CB        14.7320   62.0970  126.9840 C.3   373  GLU373      0.0388
     87  CG        15.5200   62.0650  128.3320 C.3   373  GLU373      0.1160
     88  CD        15.2310   60.8410  129.1830 C.2   373  GLU373      0.3649
     89  OE1       14.4550   59.9530  128.7530 O.co2 373  GLU373     -0.2457
     90  OE2       15.7600   60.7750  130.3280 O.co2 373  GLU373     -0.2457
     91  N         16.6380   61.9490  122.1510 N.3   428  TRP428     -0.1241
     92  CA        17.0130   60.6600  122.7640 C.3   428  TRP428      0.1605
     93  C         17.4100   59.6070  121.7210 C.2   428  TRP428      0.2264
     94  O         16.7220   58.6060  121.5540 O.2   428  TRP428     -0.2867
     95  CB        15.9090   60.1390  123.7240 C.3   428  TRP428      0.0550
     96  CG        16.5130   59.2240  124.7230 C.ar  428  TRP428      0.0003
     97  CD1       16.3480   57.8610  124.8250 C.ar  428  TRP428      0.0946
     98  CD2       17.4270   59.5970  125.7530 C.ar  428  TRP428      0.0152
     99  NE1       17.0940   57.3760  125.8850 N.ar  428  TRP428     -0.2442
    100  CE2       17.7910   58.4200  126.4460 C.ar  428  TRP428      0.0810
    101  CE3       17.9860   60.8250  126.1600 C.ar  428  TRP428      0.0012
    102  CZ2       18.6820   58.4290  127.5480 C.ar  428  TRP428      0.0191
    103  CZ3       18.9050   60.8200  127.2600 C.ar  428  TRP428      0.0001
    104  CH2       19.2180   59.6330  127.9280 C.ar  428  TRP428      0.0015
    105  N         14.8900   53.6830  121.7270 N.3   436  TRP436     -0.1241
    106  CA        14.3830   52.9570  122.8670 C.3   436  TRP436      0.1605
    107  C         12.8850   52.6400  122.7670 C.2   436  TRP436      0.2264
    108  O         12.4170   51.6790  123.4000 O.2   436  TRP436     -0.2867
    109  CB        14.7370   53.7370  124.1520 C.3   436  TRP436      0.0550
    110  CG        13.8060   54.8970  124.4290 C.ar  436  TRP436      0.0003
    111  CD1       13.5750   55.9920  123.6170 C.ar  436  TRP436      0.0946
    112  CD2       12.9300   55.0460  125.5590 C.ar  436  TRP436      0.0152
    113  NE1       12.6450   56.8190  124.2060 N.ar  436  TRP436     -0.2442
    114  CE2       12.2440   56.2750  125.4000 C.ar  436  TRP436      0.0810
    115  CE3       12.6790   54.2810  126.7170 C.ar  436  TRP436      0.0012
    116  CZ2       11.2990   56.7460  126.3330 C.ar  436  TRP436      0.0191
    117  CZ3       11.7530   54.7640  127.6610 C.ar  436  TRP436      0.0001
    118  CH2       11.0710   55.9790  127.4560 C.ar  436  TRP436      0.0015
@<TRIPOS>BOND
     1    94    93    2
     2    93    92    1
     3   105   106    1
     4    91    92    1
     5    92    95    1
     6   107   106    1
     7   107   108    2
     8   106   109    1
     9   111   113   ar
    10   111   110   ar
    11    95    96    1
    12   109   110    1
    13   113   114   ar
    14   110   112   ar
    15    74    73    1
    16    74    75    2
    17    85    84    2
    18    96    97   ar
    19    96    98   ar
    20    97    99   ar
    21    84    83    1
    22    73    76    1
    23    73    72    1
    24    78    80   ar
    25    78    77   ar
    26   114   112   ar
    27   114   116   ar
    28   112   115   ar
    29    98   101   ar
    30    98   100   ar
    31    80    81   ar
    32    76    77    1
    33    99   100   ar
    34    83    82    1
    35    83    86    1
    36    77    79   ar
    37   101   103   ar
    38   116   118   ar
    39   100   102   ar
    40    66    65    2
    41   115   117   ar
    42    86    87    1
    43    81    79   ar
    44   103   104   ar
    45   118   117   ar
    46   102   104   ar
    47    65    64    1
    48    87    88    1
    49    89    88   ar
    50    64    67    1
    51    64    63    1
    52    88    90   ar
    53    67    68    1
    54    70    69    2
    55    68    69    1
    56     9     8    1
    57    69    71   am
    58    17    19   ar
    59    17    15   ar
    60    19    18   ar
    61    45    44    1
    62     8     7    1
    63    15    14    1
    64    15    16   ar
    65    14    11    1
    66    18    16   ar
    67    43    44   ar
    68    43    41   ar
    69    44    42   ar
    70     7     6    1
    71    41    39   ar
    72    42    40   ar
    73    62    60   ar
    74    33    32   ar
    75    33    31   ar
    76    10    11    1
    77    13    12    2
    78    11    12    1
    79     6     5    1
    80    39    40   ar
    81    39    38    1
    82    32    30   ar
    83    31    29   ar
    84    60    61   ar
    85    60    59    1
    86    38    35    1
    87     1     2    1
    88    53    51   am
    89     5     2    1
    90    52    51    2
    91    30    27   ar
    92    29    27   ar
    93    29    28   ar
    94    59    58    1
    95    51    50    1
    96     2     3    1
    97    27    25   ar
    98    35    36    1
    99    35    34    1
   100    37    36    2
   101    28    26   ar
   102     3     4    2
   103    50    47    1
   104    58    55    1
   105    25    26   ar
   106    25    24    1
   107    54    55    1
   108    54    48   am
   109    55    56    1
   110    47    48    1
   111    47    46    1
   112    24    21    1
   113    48    49    2
   114    56    57    2
   115    21    22    1
   116    21    20    1
   117    22    23    2
