@<TRIPOS>MOLECULE
tmp/1us5A00.pdb
 120 115 0 0 0
SMALL
GASTEIGER

@<TRIPOS>ATOM
      1  N         41.0780   32.1040   84.0200 N.3    10  GLY10      -0.1210
      2  CA        41.4280   32.4630   82.6540 C.3    10  GLY10       0.1956
      3  C         42.7690   31.8730   82.2800 C.2    10  GLY10       0.2612
      4  O         43.1670   30.8500   82.8370 O.2    10  GLY10      -0.2717
      5  N         43.4660   32.5020   81.3370 N.am   11  SER11      -0.1952
      6  CA        44.7800   32.0170   80.9220 C.3    11  SER11       0.1924
      7  C         45.7360   32.0910   82.1020 C.2    11  SER11       0.2314
      8  O         45.6330   32.9820   82.9440 O.2    11  SER11      -0.2863
      9  CB        45.3260   32.8610   79.7690 C.3    11  SER11       0.2116
     10  OG        44.6040   32.6220   78.5740 O.3    11  SER11      -0.2180
     11  N         47.2610   35.5290   82.6270 N.3    14  GLY14      -0.1210
     12  CA        46.3880   36.6840   82.7530 C.3    14  GLY14       0.1956
     13  C         46.3640   37.0690   84.2230 C.2    14  GLY14       0.2612
     14  O         47.2860   36.7160   84.9620 O.2    14  GLY14      -0.2717
     15  N         45.3280   37.7780   84.6600 N.am   15  VAL15      -0.1965
     16  CA        45.2280   38.1810   86.0640 C.3    15  VAL15       0.1727
     17  C         44.2370   37.3110   86.8530 C.2    15  VAL15       0.2616
     18  O         44.4340   37.0670   88.0430 O.2    15  VAL15      -0.2715
     19  CB        44.8360   39.6750   86.1810 C.3    15  VAL15       0.0290
     20  CG1       44.6630   40.0730   87.6500 C.3    15  VAL15       0.0023
     21  CG2       45.9190   40.5290   85.5380 C.3    15  VAL15       0.0023
     22  N         43.1810   36.8320   86.1980 N.am   16  TYR16      -0.1974
     23  CA        42.2010   35.9820   86.8780 C.3    16  TYR16       0.1639
     24  C         42.8580   34.7630   87.5230 C.2    16  TYR16       0.2290
     25  O         42.5630   34.4240   88.6690 O.2    16  TYR16      -0.2864
     26  CB        41.1570   35.4360   85.8990 C.3    16  TYR16       0.0560
     27  CG        40.0500   36.3650   85.4570 C.ar   16  TYR16      -0.0198
     28  CD1       39.9930   37.6990   85.8700 C.ar   16  TYR16      -0.0009
     29  CD2       39.0560   35.8970   84.6020 C.ar   16  TYR16      -0.0009
     30  CE1       38.9610   38.5420   85.4290 C.ar   16  TYR16       0.0417
     31  CE2       38.0350   36.7200   84.1600 C.ar   16  TYR16       0.0417
     32  CZ        37.9890   38.0350   84.5710 C.ar   16  TYR16       0.1957
     33  OH        36.9690   38.8290   84.0940 O.3    16  TYR16      -0.2866
     34  N         39.0410   29.5690   79.3190 N.3    42  GLY42      -0.1210
     35  CA        39.0460   30.5610   78.2570 C.3    42  GLY42       0.1956
     36  C         38.5900   31.9400   78.7150 C.2    42  GLY42       0.2612
     37  O         38.7370   32.9220   77.9860 O.2    42  GLY42      -0.2717
     38  N         38.0320   32.0320   79.9170 N.am   43  GLY43      -0.1942
     39  CA        37.5820   33.3290   80.3890 C.3    43  GLY43       0.2014
     40  C         36.1270   33.4040   80.8170 C.2    43  GLY43       0.2639
     41  O         35.4810   32.3800   81.0640 O.2    43  GLY43      -0.2714
     42  N         35.6130   34.6310   80.8690 N.am   44  SER44      -0.1949
     43  CA        34.2510   34.9220   81.3240 C.3    44  SER44       0.1924
     44  C         33.0950   34.0870   80.8100 C.2    44  SER44       0.2314
     45  O         32.3150   33.5680   81.6060 O.2    44  SER44      -0.2863
     46  CB        33.9170   36.3960   81.0730 C.3    44  SER44       0.2116
     47  OG        34.7580   37.2450   81.8280 O.3    44  SER44      -0.2180
     48  N         33.7880   39.2030   83.8690 N.3    62  GLN62      -0.1245
     49  CA        33.5910   40.6290   83.6330 C.3    62  GLN62       0.1566
     50  C         32.1560   40.9920   84.0040 C.2    62  GLN62       0.2260
     51  O         31.2380   40.1890   83.8230 O.2    62  GLN62      -0.2867
     52  CB        33.8440   40.9530   82.1590 C.3    62  GLN62       0.0367
     53  CG        35.2600   40.6310   81.7140 C.3    62  GLN62       0.0905
     54  CD        35.5000   40.8540   80.2350 C.2    62  GLN62       0.2608
     55  OE1       36.5310   40.4470   79.7060 O.2    62  GLN62      -0.2717
     56  NE2       34.5590   41.5090   79.5630 N.am   62  GLN62      -0.0878
     57  N         38.4360   44.7880   90.4410 N.3    93  TYR93      -0.1241
     58  CA        39.3170   45.7960   89.8560 C.3    93  TYR93       0.1605
     59  C         38.9460   46.0350   88.3970 C.2    93  TYR93       0.2264
     60  O         38.1900   45.2670   87.8090 O.2    93  TYR93      -0.2867
     61  CB        40.7780   45.3240   89.9500 C.3    93  TYR93       0.0534
     62  CG        41.0420   44.0190   89.2280 C.ar   93  TYR93      -0.0201
     63  CD1       41.2720   43.9910   87.8490 C.ar   93  TYR93      -0.0009
     64  CD2       40.9830   42.8040   89.9090 C.ar   93  TYR93      -0.0009
     65  CE1       41.4280   42.7810   87.1640 C.ar   93  TYR93       0.0417
     66  CE2       41.1360   41.5930   89.2360 C.ar   93  TYR93       0.0417
     67  CZ        41.3530   41.5880   87.8650 C.ar   93  TYR93       0.1957
     68  OH        41.4530   40.3880   87.1980 O.3    93  TYR93      -0.2866
     69  N         39.1940   46.0620   84.3820 N.3    95  GLU95      -0.1245
     70  CA        39.7920   45.2500   83.3350 C.3    95  GLU95       0.1567
     71  C         39.8210   46.1370   82.1060 C.2    95  GLU95       0.2260
     72  O         38.7820   46.5230   81.5690 O.2    95  GLU95      -0.2867
     73  CB        38.9670   43.9950   83.0880 C.3    95  GLU95       0.0388
     74  CG        39.0340   43.0330   84.2500 C.3    95  GLU95       0.1160
     75  CD        38.5690   41.6540   83.8740 C.2    95  GLU95       0.3649
     76  OE1       37.3920   41.3240   84.1330 O.co2  95  GLU95      -0.2457
     77  OE2       39.3880   40.9070   83.3040 O.co2  95  GLU95      -0.2457
     78  N         36.0690   33.5580   75.8390 N.3   125  SER125     -0.1202
     79  CA        36.5740   34.7160   76.5680 C.3   125  SER125      0.2020
     80  C         35.6310   35.9100   76.5540 C.2   125  SER125      0.2619
     81  O         34.7800   36.0450   75.6710 O.2   125  SER125     -0.2717
     82  CB        37.9070   35.1750   75.9730 C.3   125  SER125      0.2103
     83  OG        37.7250   35.6950   74.6600 O.3   125  SER125     -0.2182
     84  N         35.7880   36.7780   77.5470 N.am  126  GLY126     -0.1942
     85  CA        35.0030   37.9940   77.5700 C.3   126  GLY126      0.2014
     86  C         35.6760   38.8890   76.5360 C.2   126  GLY126      0.2639
     87  O         35.0220   39.6750   75.8500 O.2   126  GLY126     -0.2714
     88  N         36.9960   38.7450   76.4220 N.am  127  THR127     -0.1950
     89  CA        37.8130   39.5210   75.4830 C.3   127  THR127      0.1897
     90  C         37.2550   39.5300   74.0650 C.2   127  THR127      0.2313
     91  O         37.1560   40.5820   73.4320 O.2   127  THR127     -0.2863
     92  CB        39.2570   38.9680   75.4120 C.3   127  THR127      0.1794
     93  OG1       39.8840   39.0990   76.6910 O.3   127  THR127     -0.2208
     94  CG2       40.0750   39.7190   74.3620 C.3   127  THR127      0.0378
     95  N         43.0350   41.9490   74.4730 N.3   170  TYR170     -0.1227
     96  CA        43.0090   41.2910   75.7750 C.3   170  TYR170      0.1736
     97  C         42.3310   42.2220   76.7710 C.2   170  TYR170      0.2596
     98  O         42.8260   43.3140   77.0410 O.2   170  TYR170     -0.2718
     99  CB        44.4260   40.9420   76.2680 C.3   170  TYR170      0.0548
    100  CG        44.4880   39.8130   77.2950 C.ar  170  TYR170     -0.0200
    101  CD1       43.3470   39.0860   77.6440 C.ar  170  TYR170     -0.0009
    102  CD2       45.7050   39.4300   77.8680 C.ar  170  TYR170     -0.0009
    103  CE1       43.4190   38.0010   78.5300 C.ar  170  TYR170      0.0417
    104  CE2       45.7860   38.3480   78.7550 C.ar  170  TYR170      0.0417
    105  CZ        44.6410   37.6370   79.0780 C.ar  170  TYR170      0.1957
    106  OH        44.7250   36.5490   79.9270 O.3   170  TYR170     -0.2866
    107  N         41.1700   41.8120   77.2760 N.am  171  THR171     -0.1939
    108  CA        40.4670   42.6040   78.2810 C.3   171  THR171      0.2028
    109  C         41.0230   42.0190   79.5650 C.2   171  THR171      0.2642
    110  O         40.6870   40.8940   79.9490 O.2   171  THR171     -0.2714
    111  CB        38.9530   42.3930   78.1990 C.3   171  THR171      0.1808
    112  OG1       38.4970   42.8220   76.9100 O.3   171  THR171     -0.2208
    113  CG2       38.2350   43.1970   79.2860 C.3   171  THR171      0.0379
    114  N         41.8820   42.7810   80.2280 N.am  172  VAL172     -0.1977
    115  CA        42.5490   42.2610   81.4070 C.3   172  VAL172      0.1596
    116  C         43.0510   43.3680   82.3240 C.2   172  VAL172      0.2287
    117  O         43.2250   44.5090   81.9050 O.2   172  VAL172     -0.2864
    118  CB        43.7440   41.3760   80.9410 C.3   172  VAL172      0.0276
    119  CG1       44.7790   42.2370   80.2260 C.3   172  VAL172      0.0022
    120  CG2       44.3670   40.6330   82.1160 C.3   172  VAL172      0.0022
@<TRIPOS>BOND
     1    91    90    2
     2    90    89    1
     3    94    92    1
     4    95    96    1
     5    83    82    1
     6    92    89    1
     7    92    93    1
     8    89    88    1
     9    81    80    2
    10    96    99    1
    11    96    97    1
    12    78    79    1
    13    87    86    2
    14    82    79    1
    15    99   100    1
    16    88    86   am
    17    86    85    1
    18    80    79    1
    19    80    84   am
    20    97    98    2
    21    97   107   am
    22   112   111    1
    23   107   108    1
    24   100   101   ar
    25   100   102   ar
    26    84    85    1
    27   101   103   ar
    28   102   104   ar
    29    37    36    2
    30   111   108    1
    31   111   113    1
    32    35    36    1
    33    35    34    1
    34   108   109    1
    35   103   105   ar
    36    10     9    1
    37    36    38   am
    38   104   105   ar
    39   105   106    1
    40    56    54   am
    41   109   110    2
    42   109   114   am
    43    55    54    2
    44     9     6    1
    45    38    39    1
    46   119   118    1
    47   114   115    1
    48    54    53    1
    49    39    40    1
    50    44    43    1
    51    44    45    2
    52    40    42   am
    53    40    41    2
    54    42    43    1
    55     6     5    1
    56     6     7    1
    57   118   115    1
    58   118   120    1
    59    46    43    1
    60    46    47    1
    61     5     3   am
    62   115   116    1
    63    72    71    2
    64    53    52    1
    65   117   116    2
    66     7     8    2
    67    71    70    1
    68    52    49    1
    69     3     2    1
    70     3     4    2
    71    11    12    1
    72     2     1    1
    73    12    13    1
    74    73    70    1
    75    73    74    1
    76    77    75   ar
    77    70    69    1
    78    49    48    1
    79    49    50    1
    80    51    50    2
    81    75    76   ar
    82    75    74    1
    83    33    32    1
    84    31    32   ar
    85    31    29   ar
    86    13    15   am
    87    13    14    2
    88    32    30   ar
    89    29    27   ar
    90    15    16    1
    91    30    28   ar
    92    27    28   ar
    93    27    26    1
    94    21    19    1
    95    26    23    1
    96    16    19    1
    97    16    17    1
    98    19    20    1
    99    22    17   am
   100    22    23    1
   101    17    18    2
   102    23    24    1
   103    65    63   ar
   104    65    67   ar
   105    68    67    1
   106    24    25    2
   107    60    59    2
   108    63    62   ar
   109    67    66   ar
   110    59    58    1
   111    62    64   ar
   112    62    61    1
   113    66    64   ar
   114    58    61    1
   115    58    57    1
