@<TRIPOS>MOLECULE
tmp/1usfB01.pdb
 113 109 0 0 0
SMALL
GASTEIGER

@<TRIPOS>ATOM
      1  N         56.9010   -8.7960   25.4730 N.3    14  TYR14      -0.1241
      2  CA        57.9130   -9.3930   24.6100 C.3    14  TYR14       0.1605
      3  C         58.5470  -10.6810   25.1200 C.2    14  TYR14       0.2264
      4  O         59.5740  -11.1130   24.5970 O.2    14  TYR14      -0.2867
      5  CB        59.0320   -8.3720   24.3760 C.3    14  TYR14       0.0534
      6  CG        58.5460   -7.0420   23.8690 C.ar   14  TYR14      -0.0201
      7  CD1       58.5740   -5.9070   24.6790 C.ar   14  TYR14      -0.0009
      8  CD2       58.0340   -6.9210   22.5820 C.ar   14  TYR14      -0.0009
      9  CE1       58.0960   -4.6780   24.2100 C.ar   14  TYR14       0.0417
     10  CE2       57.5560   -5.7090   22.1050 C.ar   14  TYR14       0.0417
     11  CZ        57.5890   -4.5960   22.9220 C.ar   14  TYR14       0.1957
     12  OH        57.1050   -3.4030   22.4440 O.3    14  TYR14      -0.2866
     13  N         59.2990  -13.1630   22.3900 N.3    17  TYR17      -0.1241
     14  CA        60.0880  -12.7130   21.2450 C.3    17  TYR17       0.1605
     15  C         61.4800  -13.3480   21.3870 C.2    17  TYR17       0.2264
     16  O         61.8400  -13.8300   22.4580 O.2    17  TYR17      -0.2867
     17  CB        60.2150  -11.1840   21.2490 C.3    17  TYR17       0.0534
     18  CG        59.0020  -10.4150   20.7500 C.ar   17  TYR17      -0.0201
     19  CD1       57.7380  -10.6070   21.3100 C.ar   17  TYR17      -0.0009
     20  CD2       59.1440   -9.4260   19.7740 C.ar   17  TYR17      -0.0009
     21  CE1       56.6480   -9.8230   20.9170 C.ar   17  TYR17       0.0417
     22  CE2       58.0620   -8.6390   19.3790 C.ar   17  TYR17       0.0417
     23  CZ        56.8190   -8.8380   19.9580 C.ar   17  TYR17       0.1957
     24  OH        55.7610   -8.0200   19.6010 O.3    17  TYR17      -0.2866
     25  N         54.9090   -9.2330   13.2270 N.3    38  VAL38      -0.1245
     26  CA        55.6360  -10.2210   14.0080 C.3    38  VAL38       0.1561
     27  C         54.6440  -11.1660   14.6800 C.2    38  VAL38       0.2260
     28  O         54.9990  -12.2640   15.0990 O.2    38  VAL38      -0.2867
     29  CB        56.5690   -9.5540   15.0570 C.3    38  VAL38       0.0252
     30  CG1       55.7590   -8.8640   16.1390 C.3    38  VAL38       0.0019
     31  CG2       57.5100  -10.5940   15.6480 C.3    38  VAL38       0.0019
     32  N         45.8610   -0.0180   11.5930 N.3    58  ARG58      -0.1245
     33  CA        46.7550   -0.0420   10.4430 C.3    58  ARG58       0.1563
     34  C         45.9820    0.1830    9.1480 C.2    58  ARG58       0.2260
     35  O         44.8620   -0.3060    8.9820 O.2    58  ARG58      -0.2867
     36  CB        47.4830   -1.3880   10.3410 C.3    58  ARG58       0.0307
     37  CG        48.0050   -1.9670   11.6530 C.3    58  ARG58       0.0489
     38  CD        49.0000   -1.0740   12.3700 C.3    58  ARG58       0.2205
     39  NE        49.5890   -1.8040   13.4900 N.pl3  58  ARG58      -0.0865
     40  CZ        49.6990   -1.3350   14.7280 C.cat  58  ARG58       0.5346
     41  NH1       49.2660   -0.1180   15.0280 N.pl3  58  ARG58       0.1354
     42  NH2       50.2280   -2.0970   15.6740 N.pl3  58  ARG58       0.1354
     43  N         62.0290   -2.5700    8.5980 N.3    84  HIS84      -0.1241
     44  CA        61.7870   -1.6080    9.6600 C.3    84  HIS84       0.1621
     45  C         61.1090   -0.3490    9.1220 C.2    84  HIS84       0.2264
     46  O         60.2060    0.2030    9.7560 O.2    84  HIS84      -0.2867
     47  CB        63.0930   -1.2220   10.3500 C.3    84  HIS84       0.0745
     48  CG        62.9030   -0.2810   11.4960 C.ar   84  HIS84       0.0817
     49  ND1       63.3230    1.0310   11.4650 N.ar   84  HIS84      -0.2268
     50  CD2       62.3030   -0.4570   12.6960 C.ar   84  HIS84       0.1154
     51  CE1       62.9910    1.6230   12.5980 C.ar   84  HIS84       0.1986
     52  NE2       62.3710    0.7430   13.3620 N.ar   84  HIS84      -0.2212
     53  N         57.5550   -0.8370    8.5960 N.3    87  GLY87      -0.1210
     54  CA        56.8340   -0.9360    9.8530 C.3    87  GLY87       0.1956
     55  C         56.8920    0.3160   10.7090 C.2    87  GLY87       0.2612
     56  O         56.4370    0.3030   11.8520 O.2    87  GLY87      -0.2717
     57  N         57.4350    1.3990   10.1620 N.am   88  SER88      -0.1952
     58  CA        57.5500    2.6480   10.9080 C.3    88  SER88       0.1924
     59  C         56.8540    3.8150   10.2100 C.2    88  SER88       0.2314
     60  O         56.9440    4.9610   10.6550 O.2    88  SER88      -0.2863
     61  CB        59.0270    2.9750   11.1690 C.3    88  SER88       0.2116
     62  OG        59.7960    2.9290    9.9820 O.3    88  SER88      -0.2180
     63  N         43.5140   -6.4960   18.3390 N.3   131  HIS131     -0.1241
     64  CA        44.0380   -6.8890   17.0280 C.3   131  HIS131      0.1621
     65  C         43.0930   -7.9050   16.4000 C.2   131  HIS131      0.2264
     66  O         42.4110   -8.6490   17.1050 O.2   131  HIS131     -0.2867
     67  CB        45.4240   -7.5390   17.1240 C.3   131  HIS131      0.0745
     68  CG        46.5590   -6.5690   17.2280 C.ar  131  HIS131      0.0817
     69  ND1       46.7040   -5.7030   18.2890 N.ar  131  HIS131     -0.2268
     70  CD2       47.6370   -6.3720   16.4310 C.ar  131  HIS131      0.1154
     71  CE1       47.8240   -5.0160   18.1450 C.ar  131  HIS131      0.1986
     72  NE2       48.4090   -5.4030   17.0260 N.ar  131  HIS131     -0.2212
     73  N         62.8920  -10.2410   14.9740 N.3   162  TYR162     -0.1241
     74  CA        62.4750   -8.9870   15.5830 C.3   162  TYR162      0.1605
     75  C         62.2870   -9.2070   17.0770 C.2   162  TYR162      0.2264
     76  O         61.5800  -10.1260   17.4890 O.2   162  TYR162     -0.2867
     77  CB        61.1670   -8.5030   14.9650 C.3   162  TYR162      0.0534
     78  CG        60.7140   -7.1560   15.4840 C.ar  162  TYR162     -0.0201
     79  CD1       61.5520   -6.0440   15.4120 C.ar  162  TYR162     -0.0009
     80  CD2       59.4260   -6.9830   16.0050 C.ar  162  TYR162     -0.0009
     81  CE1       61.1210   -4.7910   15.8370 C.ar  162  TYR162      0.0417
     82  CE2       58.9840   -5.7320   16.4370 C.ar  162  TYR162      0.0417
     83  CZ        59.8390   -4.6390   16.3460 C.ar  162  TYR162      0.1957
     84  OH        59.4210   -3.3920   16.7540 O.3   162  TYR162     -0.2866
     85  N         61.2980   -6.6000   19.1610 N.3   164  GLY164     -0.1210
     86  CA        60.3440   -5.6370   19.6790 C.3   164  GLY164      0.1956
     87  C         60.9880   -4.2700   19.8300 C.2   164  GLY164      0.2612
     88  O         62.2040   -4.1610   19.9720 O.2   164  GLY164     -0.2717
     89  N         60.1650   -3.2300   19.8000 N.am  165  LYS165     -0.1965
     90  CA        60.6230   -1.8500   19.9250 C.3   165  LYS165      0.1728
     91  C         61.8150   -1.4810   19.0420 C.2   165  LYS165      0.2616
     92  O         62.7950   -0.8870   19.5020 O.2   165  LYS165     -0.2715
     93  CB        60.9150   -1.5190   21.3920 C.3   165  LYS165      0.0311
     94  CG        59.6810   -1.6710   22.2740 C.3   165  LYS165      0.0038
     95  CD        59.6990   -0.7420   23.4700 C.3   165  LYS165      0.0206
     96  CE        58.3960   -0.8450   24.2570 C.3   165  LYS165      0.1093
     97  NZ        57.2000   -0.5470   23.4220 N.3   165  LYS165     -0.1314
     98  N         61.7150   -1.8420   17.7650 N.am  166  GLY166     -0.1955
     99  CA        62.7420   -1.5090   16.7900 C.3   166  GLY166      0.1869
    100  C         64.0870   -2.1980   16.8630 C.2   166  GLY166      0.2309
    101  O         65.0470   -1.7270   16.2560 O.2   166  GLY166     -0.2863
    102  N         66.3260   -5.5930   16.0830 N.3   168  TYR168     -0.1241
    103  CA        66.3470   -6.7950   15.2570 C.3   168  TYR168      0.1605
    104  C         67.5900   -7.6310   15.4800 C.2   168  TYR168      0.2264
    105  O         68.5610   -7.1850   16.0860 O.2   168  TYR168     -0.2867
    106  CB        66.2770   -6.4300   13.7710 C.3   168  TYR168      0.0534
    107  CG        65.0530   -5.6330   13.3870 C.ar  168  TYR168     -0.0201
    108  CD1       64.9300   -4.2920   13.7480 C.ar  168  TYR168     -0.0009
    109  CD2       64.0090   -6.2240   12.6710 C.ar  168  TYR168     -0.0009
    110  CE1       63.7990   -3.5550   13.4080 C.ar  168  TYR168      0.0417
    111  CE2       62.8690   -5.4920   12.3260 C.ar  168  TYR168      0.0417
    112  CZ        62.7730   -4.1600   12.6990 C.ar  168  TYR168      0.1957
    113  OH        61.6510   -3.4340   12.3730 O.3   168  TYR168     -0.2866
@<TRIPOS>BOND
     1    53    54    1
     2    43    44    1
     3    35    34    2
     4    45    44    1
     5    45    46    2
     6    34    33    1
     7    44    47    1
     8    54    55    1
     9    62    61    1
    10    57    55   am
    11    57    58    1
    12    59    60    2
    13    59    58    1
    14    36    33    1
    15    36    37    1
    16    47    48    1
    17    33    32    1
    18    55    56    2
    19    58    61    1
    20    49    48   ar
    21    49    51   ar
    22    48    50   ar
    23    37    38    1
    24   111   109   ar
    25   111   112   ar
    26    38    39    1
    27   113   112    1
    28    51    52   ar
    29   109   107   ar
    30    50    52   ar
    31   112   110   ar
    32    25    26    1
    33   107   108   ar
    34   107   106    1
    35   110   108   ar
    36    39    40    2
    37   106   103    1
    38    26    27    1
    39    26    29    1
    40    27    28    2
    41    40    41    1
    42    40    42    1
    43    77    78    1
    44    77    74    1
    45    73    74    1
    46    29    31    1
    47    29    30    1
    48   103   104    1
    49   103   102    1
    50    79    78   ar
    51    79    81   ar
    52   104   105    2
    53    78    80   ar
    54    74    75    1
    55    81    83   ar
    56    80    82   ar
    57   101   100    2
    58    83    82   ar
    59    83    84    1
    60    65    64    1
    61    65    66    2
    62    70    72   ar
    63    70    68   ar
    64    99   100    1
    65    99    98    1
    66    72    71   ar
    67    64    67    1
    68    64    63    1
    69    75    76    2
    70    67    68    1
    71    68    69   ar
    72    98    91   am
    73    71    69   ar
    74    91    92    2
    75    91    90    1
    76    85    86    1
    77    22    20   ar
    78    22    23   ar
    79    24    23    1
    80    86    87    1
    81    20    18   ar
    82    89    87   am
    83    89    90    1
    84    87    88    2
    85    90    93    1
    86    23    21   ar
    87    18    17    1
    88    18    19   ar
    89    21    19   ar
    90    14    17    1
    91    14    15    1
    92    14    13    1
    93    15    16    2
    94    93    94    1
    95    10     8   ar
    96    10    11   ar
    97    94    95    1
    98    12    11    1
    99     8     6   ar
   100    11     9   ar
   101    97    96    1
   102    95    96    1
   103     6     5    1
   104     6     7   ar
   105     9     7   ar
   106     5     2    1
   107     4     3    2
   108     2     3    1
   109     2     1    1
