@<TRIPOS>MOLECULE
tmp/1usiB00.pdb
 107 104 0 0 0
SMALL
GASTEIGER

@<TRIPOS>ATOM
      1  N         20.0910   13.2850   45.4500 N.3    15  ILE15      -0.1245
      2  CA        20.9140   12.1870   45.9650 C.3    15  ILE15       0.1561
      3  C         20.1910   11.4460   47.0710 C.2    15  ILE15       0.2260
      4  O         20.8040   10.6330   47.7620 O.2    15  ILE15      -0.2867
      5  CB        22.2820   12.8830   46.5570 C.3    15  ILE15       0.0252
      6  CG1       23.0460   13.3950   45.3620 C.3    15  ILE15       0.0019
      7  CG2       23.1930   11.9880   47.2820 C.3    15  ILE15       0.0019
      8  CD1       22.9270   12.4520   44.2040 C.3    15  ILE15       0.0001
      9  N         20.6990    7.6170   47.7820 N.3    18  TRP18      -0.1241
     10  CA        21.8360    7.1160   48.5350 C.3    18  TRP18       0.1605
     11  C         21.5350    7.1720   50.0100 C.2    18  TRP18       0.2264
     12  O         21.8670    6.2850   50.7660 O.2    18  TRP18      -0.2867
     13  CB        23.0740    7.9050   48.2030 C.3    18  TRP18       0.0550
     14  CG        23.7270    7.5510   46.9370 C.ar   18  TRP18       0.0003
     15  CD1       24.1410    8.4450   45.9650 C.ar   18  TRP18       0.0946
     16  CD2       24.0800    6.2440   46.4500 C.ar   18  TRP18       0.0152
     17  NE1       24.7030    7.7680   44.9150 N.ar   18  TRP18      -0.2442
     18  CE2       24.6730    6.4190   45.1830 C.ar   18  TRP18       0.0810
     19  CE3       23.9430    4.9400   46.9480 C.ar   18  TRP18       0.0012
     20  CZ2       25.1640    5.3630   44.4370 C.ar   18  TRP18       0.0191
     21  CZ3       24.4420    3.8730   46.2020 C.ar   18  TRP18       0.0001
     22  CH2       25.0370    4.0910   44.9560 C.ar   18  TRP18       0.0015
     23  N         26.7350   11.9740   54.7050 N.3    77  LEU77      -0.1231
     24  CA        26.7350   10.9960   53.6120 C.3    77  LEU77       0.1693
     25  C         27.7420   11.3520   52.5470 C.2    77  LEU77       0.2592
     26  O         28.5270   10.4990   52.0710 O.2    77  LEU77      -0.2718
     27  CB        25.3100   10.9360   53.0110 C.3    77  LEU77       0.0284
     28  CG        25.0490    9.8540   51.9630 C.3    77  LEU77       0.0019
     29  CD1       25.3520    8.4810   52.4810 C.3    77  LEU77       0.0001
     30  CD2       23.6430    9.9680   51.4040 C.3    77  LEU77       0.0001
     31  N         27.6700   12.5890   52.0890 N.am   78  CYS78      -0.1956
     32  CA        28.5150   13.1050   50.9770 C.3    78  CYS78       0.1843
     33  C         29.7550   13.8540   51.5400 C.2    78  CYS78       0.2626
     34  O         29.7550   14.2840   52.6850 O.2    78  CYS78      -0.2714
     35  CB        27.7310   14.0750   50.1160 C.3    78  CYS78       0.0997
     36  SG        26.1430   13.3460   49.5570 S.3    78  CYS78      -0.0797
     37  N         30.8240   13.8840   50.7800 N.am   79  SER79      -0.1950
     38  CA        32.0880   14.4840   51.2700 C.3    79  SER79       0.1924
     39  C         31.8790   15.9690   51.5260 C.2    79  SER79       0.2314
     40  O         32.4000   16.4410   52.5180 O.2    79  SER79      -0.2863
     41  CB        33.2120   14.3410   50.2430 C.3    79  SER79       0.2116
     42  OG        33.5810   12.9620   50.1840 O.3    79  SER79      -0.2180
     43  N         29.6680    7.3250   54.4960 N.3   100  GLY100     -0.1210
     44  CA        29.4820    7.7000   53.0900 C.3   100  GLY100      0.1956
     45  C         30.6050    8.4750   52.4200 C.2   100  GLY100      0.2612
     46  O         30.8680    8.3710   51.1740 O.2   100  GLY100     -0.2717
     47  N         31.2830    9.3000   53.2130 N.am  101  ALA101     -0.1965
     48  CA        32.1930   10.2720   52.6320 C.3   101  ALA101      0.1728
     49  C         33.4980    9.5440   52.2400 C.2   101  ALA101      0.2616
     50  O         34.0440    8.8650   53.0960 O.2   101  ALA101     -0.2715
     51  CB        32.5240   11.3430   53.6350 C.3   101  ALA101      0.0334
     52  N         33.9660    9.6920   50.9820 N.am  102  THR102     -0.1951
     53  CA        35.1760    9.0070   50.5190 C.3   102  THR102      0.1897
     54  C         36.3910    9.9450   50.2320 C.2   102  THR102      0.2313
     55  O         37.5480    9.5130   50.0300 O.2   102  THR102     -0.2863
     56  CB        34.8580    8.1950   49.2550 C.3   102  THR102      0.1794
     57  OG1       34.1310    9.0390   48.3620 O.3   102  THR102     -0.2208
     58  CG2       34.0350    7.0190   49.5930 C.3   102  THR102      0.0378
     59  N         33.6110   15.7000   45.9540 N.3   150  TYR150     -0.1241
     60  CA        33.7490   14.2590   45.7240 C.3   150  TYR150      0.1605
     61  C         34.1790   14.0010   44.2420 C.2   150  TYR150      0.2264
     62  O         35.1800   13.3830   43.9760 O.2   150  TYR150     -0.2867
     63  CB        32.4080   13.6030   46.0330 C.3   150  TYR150      0.0534
     64  CG        32.2310   12.1750   45.5150 C.ar  150  TYR150     -0.0201
     65  CD1       32.8460   11.1160   46.1400 C.ar  150  TYR150     -0.0009
     66  CD2       31.4130   11.9020   44.4200 C.ar  150  TYR150     -0.0009
     67  CE1       32.7360    9.7990   45.6160 C.ar  150  TYR150      0.0417
     68  CE2       31.2650   10.6200   43.9530 C.ar  150  TYR150      0.0417
     69  CZ        31.9020    9.5660   44.5630 C.ar  150  TYR150      0.1957
     70  OH        31.6550    8.2810   44.1320 O.3   150  TYR150     -0.2866
     71  N         27.7800   11.8650   40.4560 N.3   202  TYR202     -0.1241
     72  CA        26.7120   11.0390   40.9480 C.3   202  TYR202      0.1605
     73  C         25.7490   10.7040   39.8060 C.2   202  TYR202      0.2264
     74  O         25.8030   11.2430   38.6870 O.2   202  TYR202     -0.2867
     75  CB        25.9570   11.7670   42.0810 C.3   202  TYR202      0.0534
     76  CG        26.7990   12.2550   43.2370 C.ar  202  TYR202     -0.0201
     77  CD1       27.2800   11.3600   44.2040 C.ar  202  TYR202     -0.0009
     78  CD2       27.0580   13.5640   43.3960 C.ar  202  TYR202     -0.0009
     79  CE1       28.0090   11.8010   45.2960 C.ar  202  TYR202      0.0417
     80  CE2       27.8030   14.0640   44.5380 C.ar  202  TYR202      0.0417
     81  CZ        28.2530   13.1560   45.4510 C.ar  202  TYR202      0.1957
     82  OH        28.9940   13.5390   46.4810 O.3   202  TYR202     -0.2866
     83  N         31.6420    5.1050   42.5780 N.3   226  GLU226     -0.1231
     84  CA        30.5270    4.4370   43.2140 C.3   226  GLU226      0.1699
     85  C         29.2940    5.3460   43.2740 C.2   226  GLU226      0.2592
     86  O         28.1630    4.8400   43.2280 O.2   226  GLU226     -0.2718
     87  CB        30.9260    3.7900   44.5340 C.3   226  GLU226      0.0402
     88  CG        30.5340    4.4280   45.8330 C.3   226  GLU226      0.1161
     89  CD        31.2920    5.7140   46.1680 C.2   226  GLU226      0.3649
     90  OE1       32.1470    6.1770   45.3760 O.co2 226  GLU226     -0.2457
     91  OE2       31.0270    6.2250   47.2860 O.co2 226  GLU226     -0.2457
     92  N         29.4990    6.6630   43.2980 N.am  227  GLY227     -0.1957
     93  CA        28.3900    7.6330   43.2820 C.3   227  GLY227      0.1869
     94  C         27.3710    7.4970   42.1550 C.2   227  GLY227      0.2309
     95  O         26.2070    7.9660   42.2660 O.2   227  GLY227     -0.2863
     96  N         25.8900    0.5940   50.7160 N.3   276  TYR276     -0.1241
     97  CA        25.7840    1.5570   51.8020 C.3   276  TYR276      0.1605
     98  C         24.8270    1.1840   52.8900 C.2   276  TYR276      0.2264
     99  O         24.8660    1.7330   53.9890 O.2   276  TYR276     -0.2867
    100  CB        25.5630    2.9680   51.2970 C.3   276  TYR276      0.0534
    101  CG        26.9100    3.4460   50.7320 C.ar  276  TYR276     -0.0201
    102  CD1       27.2710    3.1130   49.4430 C.ar  276  TYR276     -0.0009
    103  CD2       27.8790    4.0130   51.5660 C.ar  276  TYR276     -0.0009
    104  CE1       28.5270    3.4760   48.9180 C.ar  276  TYR276      0.0417
    105  CE2       29.1830    4.3710   51.0630 C.ar  276  TYR276      0.0417
    106  CZ        29.4860    4.1260   49.7390 C.ar  276  TYR276      0.1957
    107  OH        30.7670    4.4480   49.2030 O.3   276  TYR276     -0.2866
@<TRIPOS>BOND
     1    74    73    2
     2    73    72    1
     3    71    72    1
     4    72    75    1
     5    75    76    1
     6    94    95    2
     7    94    93    1
     8    83    84    1
     9    84    85    1
    10    84    87    1
    11    86    85    2
    12    76    78   ar
    13    76    77   ar
    14    85    92   am
    15    93    92    1
    16    78    80   ar
    17    68    66   ar
    18    68    69   ar
    19    62    61    2
    20    70    69    1
    21     8     6    1
    22    77    79   ar
    23    61    60    1
    24    66    64   ar
    25    20    22   ar
    26    20    18   ar
    27    87    88    1
    28    80    81   ar
    29    69    67   ar
    30    17    18   ar
    31    17    15   ar
    32    22    21   ar
    33    18    16   ar
    34    79    81   ar
    35     6     5    1
    36    90    89   ar
    37     1     2    1
    38    81    82    1
    39    64    63    1
    40    64    65   ar
    41    67    65   ar
    42    60    59    1
    43    60    63    1
    44    88    89    1
    45    15    14   ar
    46     2     5    1
    47     2     3    1
    48    89    91   ar
    49    21    19   ar
    50    16    14   ar
    51    16    19   ar
    52     5     7    1
    53    14    13    1
    54     3     4    2
    55     9    10    1
    56    13    10    1
    57    57    56    1
    58    10    11    1
    59   104   102   ar
    60   104   106   ar
    61   107   106    1
    62    56    58    1
    63    56    53    1
    64   102   101   ar
    65    36    35    1
    66   106   105   ar
    67    11    12    2
    68    55    54    2
    69    35    32    1
    70    42    41    1
    71    54    53    1
    72    41    38    1
    73    53    52    1
    74    96    97    1
    75   101   100    1
    76   101   103   ar
    77    37    38    1
    78    37    33   am
    79    32    33    1
    80    32    31    1
    81    52    49   am
    82   105   103   ar
    83    46    45    2
    84    38    39    1
    85   100    97    1
    86    30    28    1
    87    39    40    2
    88    33    34    2
    89    97    98    1
    90    28    29    1
    91    28    27    1
    92    26    25    2
    93    31    25   am
    94    49    48    1
    95    49    50    2
    96    45    44    1
    97    45    47   am
    98    25    24    1
    99    48    47    1
   100    48    51    1
   101    98    99    2
   102    27    24    1
   103    44    43    1
   104    24    23    1
