@<TRIPOS>MOLECULE
tmp/1uskB00.pdb
 99 97 0 0 0
SMALL
GASTEIGER

@<TRIPOS>ATOM
      1  N         43.2790   -0.2940   40.3460 N.3    18  TRP18      -0.1241
      2  CA        42.1210   -0.8190   41.0690 C.3    18  TRP18       0.1605
      3  C         42.4300   -2.2020   41.6430 C.2    18  TRP18       0.2264
      4  O         42.0900   -2.4990   42.7870 O.2    18  TRP18      -0.2867
      5  CB        40.8920   -0.9090   40.1550 C.3    18  TRP18       0.0550
      6  CG        40.2250    0.3980   39.8950 C.ar   18  TRP18       0.0003
      7  CD1       39.9350    0.9320   38.6810 C.ar   18  TRP18       0.0946
      8  CD2       39.7560    1.3410   40.8680 C.ar   18  TRP18       0.0152
      9  NE1       39.3140    2.1470   38.8290 N.ar   18  TRP18      -0.2442
     10  CE2       39.1930    2.4250   40.1630 C.ar   18  TRP18       0.0810
     11  CE3       39.7470    1.3780   42.2700 C.ar   18  TRP18       0.0012
     12  CZ2       38.6320    3.5290   40.8050 C.ar   18  TRP18       0.0191
     13  CZ3       39.1950    2.4770   42.9080 C.ar   18  TRP18       0.0001
     14  CH2       38.6420    3.5350   42.1760 C.ar   18  TRP18       0.0015
     15  N         37.2980   -8.5960   39.4130 N.3    77  LEU77      -0.1231
     16  CA        37.3340   -7.1780   39.7870 C.3    77  LEU77       0.1693
     17  C         36.3350   -6.3080   39.0100 C.2    77  LEU77       0.2592
     18  O         35.6470   -5.4770   39.5950 O.2    77  LEU77      -0.2718
     19  CB        38.7520   -6.6410   39.5770 C.3    77  LEU77       0.0284
     20  CG        39.0580   -5.2100   40.0190 C.3    77  LEU77       0.0019
     21  CD1       38.7980   -5.0170   41.5050 C.3    77  LEU77       0.0001
     22  CD2       40.4950   -4.8740   39.6740 C.3    77  LEU77       0.0001
     23  N         36.2800   -6.4900   37.6950 N.am   78  CYS78      -0.1956
     24  CA        35.4320   -5.6830   36.8160 C.3    78  CYS78       0.1843
     25  C         34.1470   -6.4310   36.4680 C.2    78  CYS78       0.2626
     26  O         34.0210   -7.6060   36.7700 O.2    78  CYS78      -0.2714
     27  CB        36.2030   -5.3290   35.5490 C.3    78  CYS78       0.0997
     28  SG        37.7300   -4.4270   35.9210 S.3    78  CYS78      -0.0797
     29  N         33.1970   -5.7450   35.8400 N.am   79  SER79      -0.1950
     30  CA        31.9080   -6.3490   35.5030 C.3    79  SER79       0.1924
     31  C         32.0040   -7.2350   34.2600 C.2    79  SER79       0.2314
     32  O         31.4440   -8.3290   34.2390 O.2    79  SER79      -0.2863
     33  CB        30.8330   -5.2760   35.2990 C.3    79  SER79       0.2116
     34  OG        30.3490   -4.7920   36.5370 O.3    79  SER79      -0.2180
     35  N         34.3610   -6.2960   43.4670 N.3   100  GLY100     -0.1210
     36  CA        34.5290   -5.1830   42.5480 C.3   100  GLY100      0.1956
     37  C         33.3710   -4.8990   41.6130 C.2   100  GLY100      0.2612
     38  O         33.1070   -3.7360   41.3120 O.2   100  GLY100     -0.2717
     39  N         32.6900   -5.9480   41.1550 N.am  101  ALA101     -0.1965
     40  CA        31.6580   -5.8310   40.1230 C.3   101  ALA101      0.1728
     41  C         30.3830   -5.1890   40.6620 C.2   101  ALA101      0.2616
     42  O         29.8640   -5.6040   41.7050 O.2   101  ALA101     -0.2715
     43  CB        31.3470   -7.1950   39.5320 C.3   101  ALA101      0.0334
     44  N         29.8950   -4.1730   39.9530 N.am  102  THR102     -0.1951
     45  CA        28.7080   -3.4190   40.3690 C.3   102  THR102      0.1897
     46  C         27.5450   -3.4960   39.3750 C.2   102  THR102      0.2313
     47  O         26.4350   -3.1010   39.7080 O.2   102  THR102     -0.2863
     48  CB        29.0600   -1.9250   40.6400 C.3   102  THR102      0.1794
     49  OG1       29.7480   -1.3630   39.5190 O.3   102  THR102     -0.2208
     50  CG2       30.0500   -1.7830   41.7880 C.3   102  THR102      0.0378
     51  N         30.4190   -1.9930   32.3090 N.3   150  TYR150     -0.1241
     52  CA        30.3460   -1.1740   33.5180 C.3   150  TYR150      0.1605
     53  C         29.8900    0.2510   33.2020 C.2   150  TYR150      0.2264
     54  O         28.8630    0.7070   33.7070 O.2   150  TYR150     -0.2867
     55  CB        31.7060   -1.1520   34.2270 C.3   150  TYR150      0.0534
     56  CG        31.8300   -0.1190   35.3290 C.ar  150  TYR150     -0.0201
     57  CD1       31.2060   -0.3040   36.5520 C.ar  150  TYR150     -0.0009
     58  CD2       32.5730    1.0410   35.1430 C.ar  150  TYR150     -0.0009
     59  CE1       31.3200    0.6310   37.5610 C.ar  150  TYR150      0.0417
     60  CE2       32.6920    1.9880   36.1520 C.ar  150  TYR150      0.0417
     61  CZ        32.0640    1.7710   37.3560 C.ar  150  TYR150      0.1957
     62  OH        32.1700    2.6840   38.3640 O.3   150  TYR150     -0.2866
     63  N         36.1420    4.4050   33.3810 N.3   202  TYR202     -0.1241
     64  CA        37.2560    4.3720   34.3260 C.3   202  TYR202      0.1605
     65  C         38.1850    5.5720   34.1310 C.2   202  TYR202      0.2264
     66  O         38.0680    6.3220   33.1600 O.2   202  TYR202     -0.2867
     67  CB        38.0550    3.0710   34.1750 C.3   202  TYR202      0.0534
     68  CG        37.2280    1.8060   34.2940 C.ar  202  TYR202     -0.0201
     69  CD1       36.7020    1.4030   35.5220 C.ar  202  TYR202     -0.0009
     70  CD2       36.9750    1.0070   33.1810 C.ar  202  TYR202     -0.0009
     71  CE1       35.9390    0.2390   35.6340 C.ar  202  TYR202      0.0417
     72  CE2       36.2160   -0.1550   33.2840 C.ar  202  TYR202      0.0417
     73  CZ        35.7020   -0.5320   34.5090 C.ar  202  TYR202      0.1957
     74  OH        34.9510   -1.6770   34.6120 O.3   202  TYR202     -0.2866
     75  N         32.3710    5.6310   40.4620 N.3   226  GLU226     -0.1231
     76  CA        33.5010    5.3830   41.3740 C.3   226  GLU226      0.1699
     77  C         34.7620    4.9000   40.6450 C.2   226  GLU226      0.2592
     78  O         35.8840    5.1010   41.1210 O.2   226  GLU226     -0.2718
     79  CB        33.0920    4.4110   42.5030 C.3   226  GLU226      0.0402
     80  CG        33.5460    2.9530   42.3720 C.3   226  GLU226      0.1161
     81  CD        32.7110    2.1140   41.4080 C.2   226  GLU226      0.3649
     82  OE1       31.7140    2.6180   40.8480 O.co2 226  GLU226     -0.2457
     83  OE2       33.0610    0.9280   41.2010 O.co2 226  GLU226     -0.2457
     84  N         34.5670    4.2750   39.4860 N.am  227  GLY227     -0.1957
     85  CA        35.6630    3.8230   38.6500 C.3   227  GLY227      0.1869
     86  C         36.6320    4.8950   38.1810 C.2   227  GLY227      0.2309
     87  O         37.7450    4.5570   37.7770 O.2   227  GLY227     -0.2863
     88  N         38.0950   -0.1900   47.5830 N.3   276  TYR276     -0.1241
     89  CA        38.1600   -1.6300   47.3080 C.3   276  TYR276      0.1605
     90  C         39.2470   -2.3910   48.0760 C.2   276  TYR276      0.2264
     91  O         39.3400   -3.6200   47.9710 O.2   276  TYR276     -0.2867
     92  CB        38.2790   -1.8790   45.8040 C.3   276  TYR276      0.0534
     93  CG        37.0220   -1.4790   45.0830 C.ar  276  TYR276     -0.0201
     94  CD1       35.8740   -2.2410   45.2050 C.ar  276  TYR276     -0.0009
     95  CD2       36.9650   -0.3170   44.3160 C.ar  276  TYR276     -0.0009
     96  CE1       34.7020   -1.8780   44.5750 C.ar  276  TYR276      0.0417
     97  CE2       35.7950    0.0530   43.6660 C.ar  276  TYR276      0.0417
     98  CZ        34.6650   -0.7340   43.8040 C.ar  276  TYR276      0.1957
     99  OH        33.4930   -0.3930   43.1730 O.3   276  TYR276     -0.2866
@<TRIPOS>BOND
     1    51    52    1
     2    66    65    2
     3    70    72   ar
     4    70    68   ar
     5    53    52    1
     6    53    54    2
     7    72    73   ar
     8    63    64    1
     9    52    55    1
    10    65    64    1
    11    67    68    1
    12    67    64    1
    13    55    56    1
    14    32    31    2
    15    31    30    1
    16    68    69   ar
    17    73    74    1
    18    73    71   ar
    19    58    56   ar
    20    58    60   ar
    21    33    30    1
    22    33    34    1
    23    56    57   ar
    24    30    29    1
    25    69    71   ar
    26    27    28    1
    27    27    24    1
    28    29    25   am
    29    60    61   ar
    30    25    26    2
    31    25    24    1
    32    57    59   ar
    33    24    23    1
    34    61    59   ar
    35    61    62    1
    36    23    17   am
    37    87    86    2
    38    86    85    1
    39    85    84    1
    40     7     9   ar
    41     7     6   ar
    42     9    10   ar
    43    17    18    2
    44    17    16    1
    45    46    47    2
    46    46    45    1
    47    15    16    1
    48    84    77   am
    49    49    48    1
    50    43    40    1
    51    19    16    1
    52    19    20    1
    53    22    20    1
    54     6     5    1
    55     6     8   ar
    56    44    45    1
    57    44    41   am
    58    20    21    1
    59    40    41    1
    60    40    39    1
    61     5     2    1
    62    10    12   ar
    63    10     8   ar
    64     1     2    1
    65    45    48    1
    66    75    76    1
    67    48    50    1
    68    77    78    2
    69    77    76    1
    70    41    42    2
    71    12    14   ar
    72    82    81   ar
    73     8    11   ar
    74     2     3    1
    75    39    37   am
    76    83    81   ar
    77    38    37    2
    78    76    79    1
    79    81    80    1
    80    37    36    1
    81     3     4    2
    82    14    13   ar
    83    11    13   ar
    84    80    79    1
    85    36    35    1
    86    99    98    1
    87    97    98   ar
    88    97    95   ar
    89    98    96   ar
    90    95    93   ar
    91    96    94   ar
    92    93    94   ar
    93    93    92    1
    94    92    89    1
    95    89    88    1
    96    89    90    1
    97    91    90    2
