@<TRIPOS>MOLECULE
tmp/1usnA00.pdb
 144 146 0 0 0
SMALL
GASTEIGER

@<TRIPOS>ATOM
      1  N         26.4910   42.3440   57.4720 N.3     4  PHE4       -0.1228
      2  CA        25.3410   42.4940   56.5390 C.3     4  PHE4        0.1721
      3  C         24.0850   41.9110   57.2160 C.2     4  PHE4        0.2437
      4  O         24.1750   41.0010   58.0580 O.2     4  PHE4       -0.2733
      5  CB        25.6280   41.8080   55.2200 C.3     4  PHE4        0.0547
      6  CG        26.6180   42.3810   54.2580 C.ar    4  PHE4       -0.0202
      7  CD1       26.2770   43.4700   53.4610 C.ar    4  PHE4       -0.0042
      8  CD2       27.9030   41.8670   54.1770 C.ar    4  PHE4       -0.0042
      9  CE1       27.1910   44.0450   52.5790 C.ar    4  PHE4       -0.0003
     10  CE2       28.7990   42.4040   53.2840 C.ar    4  PHE4       -0.0003
     11  CZ        28.4580   43.5290   52.4980 C.ar    4  PHE4       -0.0000
     12  N         22.8800   42.3710   56.8640 N.am    5  PRO5       -0.2729
     13  CA        21.6430   41.8200   57.3840 C.3     5  PRO5        0.1401
     14  C         21.5030   40.3070   57.2430 C.2     5  PRO5        0.2269
     15  O         21.6460   39.7150   56.1720 O.2     5  PRO5       -0.2865
     16  CB        20.5490   42.5750   56.6400 C.3     5  PRO5        0.0296
     17  CG        21.1730   43.8570   56.1950 C.3     5  PRO5        0.0237
     18  CD        22.6360   43.4700   55.9020 C.3     5  PRO5        0.0939
     19  N         25.1960   36.8200   56.8000 N.3     8  PRO8       -0.2116
     20  CA        25.7440   35.7850   55.8950 C.3     8  PRO8        0.1372
     21  C         27.2110   35.4950   56.2350 C.2     8  PRO8        0.2244
     22  O         27.9580   36.3950   56.6900 O.2     8  PRO8       -0.2868
     23  CB        25.6060   36.4340   54.5110 C.3     8  PRO8        0.0268
     24  CG        25.5180   37.9070   54.7450 C.3     8  PRO8        0.0207
     25  CD        24.8090   38.0510   56.0950 C.3     8  PRO8        0.0892
     26  N         24.8330   46.0870   38.8730 N.3    73  TYR73      -0.1241
     27  CA        25.4960   47.3730   39.2150 C.3    73  TYR73       0.1605
     28  C         26.6240   47.8010   38.3160 C.2    73  TYR73       0.2264
     29  O         27.8010   47.4880   38.5990 O.2    73  TYR73      -0.2867
     30  CB        26.0210   47.1860   40.6660 C.3    73  TYR73       0.0534
     31  CG        24.9180   46.8530   41.6330 C.ar   73  TYR73      -0.0201
     32  CD1       23.9930   47.8350   42.0360 C.ar   73  TYR73      -0.0009
     33  CD2       24.7680   45.5700   42.1420 C.ar   73  TYR73      -0.0009
     34  CE1       22.9820   47.5550   42.9640 C.ar   73  TYR73       0.0417
     35  CE2       23.7770   45.2790   43.0640 C.ar   73  TYR73       0.0417
     36  CZ        22.8760   46.2530   43.4770 C.ar   73  TYR73       0.1957
     37  OH        21.9110   45.9000   44.3740 O.3    73  TYR73      -0.2866
     38  N         35.1020   50.1300   43.1840 N.3    83  ALA83      -0.1231
     39  CA        35.0300   48.6520   43.2090 C.3    83  ALA83       0.1694
     40  C         33.7830   48.1490   43.9420 C.2    83  ALA83       0.2592
     41  O         33.1760   48.9510   44.6810 O.2    83  ALA83      -0.2718
     42  CB        36.2840   48.0820   43.9060 C.3    83  ALA83       0.0304
     43  N         33.4820   46.8530   43.8740 N.am   84  HIS84      -0.1962
     44  CA        32.3360   46.2860   44.5600 C.3    84  HIS84       0.1787
     45  C         32.4580   44.7790   44.7150 C.2    84  HIS84       0.2620
     46  O         33.0420   44.0460   43.8460 O.2    84  HIS84      -0.2715
     47  CB        30.9160   46.7280   44.2320 C.3    84  HIS84       0.0785
     48  CG        30.4240   46.3860   42.8580 C.ar   84  HIS84       0.0821
     49  ND1       29.8070   47.3350   42.0330 N.ar   84  HIS84      -0.2267
     50  CD2       30.6570   45.3430   42.0410 C.ar   84  HIS84       0.1154
     51  CE1       29.5370   46.7850   40.8730 C.ar   84  HIS84       0.1986
     52  NE2       29.9960   45.5540   40.8540 N.ar   84  HIS84      -0.2212
     53  N         32.1230   44.3280   45.9040 N.am   85  ALA85      -0.1963
     54  CA        32.1830   42.9400   46.3690 C.3    85  ALA85       0.1728
     55  C         30.8970   42.4470   46.9780 C.2    85  ALA85       0.2616
     56  O         30.0760   43.2270   47.4910 O.2    85  ALA85      -0.2715
     57  CB        33.3420   42.8090   47.3400 C.3    85  ALA85       0.0334
     58  N         30.5970   41.1490   46.8040 N.am   86  TYR86      -0.1960
     59  CA        29.3190   40.5860   47.3560 C.3    86  TYR86       0.1771
     60  C         29.6030   39.7550   48.5950 C.2    86  TYR86       0.2619
     61  O         30.6730   39.1340   48.6980 O.2    86  TYR86      -0.2715
     62  CB        28.6950   39.6590   46.2710 C.3    86  TYR86       0.0574
     63  CG        28.2850   40.4500   45.0590 C.ar   86  TYR86      -0.0198
     64  CD1       29.1880   40.7280   44.0220 C.ar   86  TYR86      -0.0009
     65  CD2       26.9700   40.8910   44.9880 C.ar   86  TYR86      -0.0009
     66  CE1       28.7640   41.5010   42.9270 C.ar   86  TYR86       0.0417
     67  CE2       26.5600   41.6540   43.9010 C.ar   86  TYR86       0.0417
     68  CZ        27.4390   41.9150   42.8690 C.ar   86  TYR86       0.1957
     69  OH        26.9080   42.6930   41.8560 O.3    86  TYR86      -0.2866
     70  N         28.6910   39.6980   49.5400 N.am   87  ALA87      -0.1977
     71  CA        28.7590   38.9020   50.8010 C.3    87  ALA87       0.1597
     72  C         28.8480   37.4250   50.5860 C.2    87  ALA87       0.2287
     73  O         28.5570   36.9680   49.4390 O.2    87  ALA87      -0.2864
     74  CB        27.5080   39.3860   51.5760 C.3    87  ALA87       0.0319
     75  N         27.9750   35.5080   44.7640 N.3    93  ASN93      -0.1240
     76  CA        28.3140   35.7690   46.1950 C.3    93  ASN93       0.1653
     77  C         29.8100   35.5990   46.3850 C.2    93  ASN93       0.2266
     78  O         30.3970   34.6590   45.7810 O.2    93  ASN93      -0.2867
     79  CB        27.3710   35.0340   47.1100 C.3    93  ASN93       0.1155
     80  CG        25.9620   35.5730   46.9750 C.2    93  ASN93       0.2627
     81  OD1       25.0350   34.8090   46.6060 O.2    93  ASN93      -0.2716
     82  ND2       25.7250   36.8710   47.1010 N.am   93  ASN93      -0.0877
     83  N         40.1130   46.1730   51.7380 N.3   119  HIS119     -0.1226
     84  CA        38.7670   46.6210   52.1410 C.3   119  HIS119      0.1752
     85  C         37.6710   45.7750   51.5150 C.2   119  HIS119      0.2595
     86  O         36.7260   45.2660   52.2170 O.2   119  HIS119     -0.2718
     87  CB        38.5120   48.1420   51.8160 C.3   119  HIS119      0.0759
     88  CG        37.1520   48.7350   52.0810 C.ar  119  HIS119      0.0818
     89  ND1       36.7880   49.4300   53.1900 N.ar  119  HIS119     -0.2268
     90  CD2       36.0440   48.7510   51.3280 C.ar  119  HIS119      0.1154
     91  CE1       35.4960   49.7360   53.2220 C.ar  119  HIS119      0.1986
     92  NE2       34.9690   49.3300   52.0260 N.ar  119  HIS119     -0.2212
     93  N         37.7300   45.5570   50.2050 N.am  120  GLU120     -0.1979
     94  CA        36.7320   44.7110   49.4810 C.3   120  GLU120      0.1602
     95  C         36.6900   43.2860   49.9880 C.2   120  GLU120      0.2287
     96  O         35.5500   42.7200   49.9730 O.2   120  GLU120     -0.2864
     97  CB        37.0320   44.7610   47.9620 C.3   120  GLU120      0.0415
     98  CG        36.8750   46.2040   47.3550 C.3   120  GLU120      0.1163
     99  CD        35.4270   46.6350   47.4100 C.2   120  GLU120      0.3649
    100  OE1       34.5430   45.8440   47.1120 O.co2 120  GLU120     -0.2457
    101  OE2       35.1010   47.7870   47.7310 O.co2 120  GLU120     -0.2457
    102  N         34.4010   42.9080   52.8850 N.3   123  HIS123     -0.1241
    103  CA        33.0210   42.7110   52.4030 C.3   123  HIS123      0.1621
    104  C         32.7400   41.2650   52.0160 C.2   123  HIS123      0.2264
    105  O         31.6850   40.7440   52.3040 O.2   123  HIS123     -0.2867
    106  CB        32.5530   43.6840   51.2940 C.3   123  HIS123      0.0745
    107  CG        32.5370   45.1150   51.7480 C.ar  123  HIS123      0.0817
    108  ND1       31.8000   45.5080   52.8480 N.ar  123  HIS123     -0.2268
    109  CD2       32.9110   46.2420   51.1020 C.ar  123  HIS123      0.1154
    110  CE1       31.8290   46.8210   52.9270 C.ar  123  HIS123      0.1986
    111  NE2       32.4880   47.3030   51.8460 N.ar  123  HIS123     -0.2212
    112  N         30.3640   44.7710   56.8960 N.3   128  PHE128     -0.1227
    113  CA        29.7960   45.9850   56.2860 C.3   128  PHE128      0.1736
    114  C         30.6190   47.1580   56.7930 C.2   128  PHE128      0.2595
    115  O         31.7920   46.9760   57.2280 O.2   128  PHE128     -0.2718
    116  CB        28.2640   46.1050   56.3870 C.3   128  PHE128      0.0547
    117  CG        27.7040   47.1400   55.4610 C.ar  128  PHE128     -0.0202
    118  CD1       27.9460   46.9510   54.0720 C.ar  128  PHE128     -0.0042
    119  CD2       26.9520   48.2450   55.8780 C.ar  128  PHE128     -0.0042
    120  CE1       27.5410   47.8880   53.1360 C.ar  128  PHE128     -0.0003
    121  CE2       26.5090   49.2110   54.9140 C.ar  128  PHE128     -0.0003
    122  CZ        26.8230   49.0330   53.5520 C.ar  128  PHE128     -0.0000
    123  N         30.0970   48.3730   56.7290 N.am  129  HIS129     -0.1975
    124  CA        30.8740   49.5700   57.1630 C.3   129  HIS129      0.1656
    125  C         30.8100   49.8840   58.6540 C.2   129  HIS129      0.2291
    126  O         29.8370   49.6550   59.3940 O.2   129  HIS129     -0.2864
    127  CB        30.5540   50.7910   56.2860 C.3   129  HIS129      0.0771
    128  CG        30.9190   50.6830   54.8250 C.ar  129  HIS129      0.0820
    129  ND1       30.1680   51.1860   53.7910 N.ar  129  HIS129     -0.2267
    130  CD2       31.9890   50.1060   54.2100 C.ar  129  HIS129      0.1154
    131  CE1       30.8010   51.0370   52.6600 C.ar  129  HIS129      0.1986
    132  NE2       31.8400   50.2760   52.8470 N.ar  129  HIS129     -0.2212
    133  N         38.3470   55.1590   54.2650 N.3   141  TYR141     -0.1241
    134  CA        39.6440   54.5250   54.4810 C.3   141  TYR141      0.1605
    135  C         40.6500   54.8440   53.3940 C.2   141  TYR141      0.2264
    136  O         41.8830   54.8930   53.6190 O.2   141  TYR141     -0.2867
    137  CB        39.4660   52.9420   54.5500 C.3   141  TYR141      0.0534
    138  CG        39.1820   52.3460   53.1900 C.ar  141  TYR141     -0.0201
    139  CD1       37.9010   52.3940   52.6440 C.ar  141  TYR141     -0.0009
    140  CD2       40.1870   51.8060   52.3940 C.ar  141  TYR141     -0.0009
    141  CE1       37.6510   52.0500   51.3070 C.ar  141  TYR141      0.0417
    142  CE2       39.9330   51.3420   51.0960 C.ar  141  TYR141      0.0417
    143  CZ        38.6730   51.4620   50.5720 C.ar  141  TYR141      0.1957
    144  OH        38.3990   51.1560   49.2850 O.3   141  TYR141     -0.2866
@<TRIPOS>BOND
     1    28    29    2
     2    28    27    1
     3    26    27    1
     4    27    30    1
     5    30    31    1
     6    52    51   ar
     7    52    50   ar
     8    51    49   ar
     9    31    32   ar
    10    31    33   ar
    11    69    68    1
    12    49    48   ar
    13    32    34   ar
    14    50    48   ar
    15    33    35   ar
    16    48    47    1
    17    68    66   ar
    18    68    67   ar
    19    66    64   ar
    20    34    36   ar
    21    35    36   ar
    22    38    39    1
    23    39    42    1
    24    39    40    1
    25    36    37    1
    26    46    45    2
    27    43    40   am
    28    43    44    1
    29    67    65   ar
    30    40    41    2
    31    64    63   ar
    32    47    44    1
    33    44    45    1
    34    45    53   am
    35    75    76    1
    36    65    63   ar
    37    63    62    1
    38    78    77    2
    39    53    54    1
    40    76    77    1
    41    76    79    1
    42    62    59    1
    43    54    55    1
    44    54    57    1
    45    81    80    2
    46    58    55   am
    47    58    59    1
    48    80    82   am
    49    80    79    1
    50    55    56    2
    51   100    99   ar
    52    98    99    1
    53    98    97    1
    54    59    60    1
    55    99   101   ar
    56    97    94    1
    57    60    61    2
    58    60    70   am
    59   144   143    1
    60    73    72    2
    61    94    95    1
    62    94    93    1
    63    70    71    1
    64    96    95    2
    65    93    85   am
    66   143   142   ar
    67   143   141   ar
    68    72    71    1
    69    71    74    1
    70   142   140   ar
    71   109   107   ar
    72   109   111   ar
    73   106   107    1
    74   106   103    1
    75   141   139   ar
    76    90    92   ar
    77    90    88   ar
    78    85    84    1
    79    85    86    2
    80    83    84    1
    81   107   108   ar
    82    87    88    1
    83    87    84    1
    84   111   110   ar
    85   104   105    2
    86   104   103    1
    87    92    91   ar
    88    88    89   ar
    89   140   138   ar
    90   103   102    1
    91    11     9   ar
    92    11    10   ar
    93     9     7   ar
    94   139   138   ar
    95   131   132   ar
    96   131   129   ar
    97   132   130   ar
    98   108   110   ar
    99   120   122   ar
   100   120   118   ar
   101   138   137    1
   102    89    91   ar
   103    10     8   ar
   104   135   136    2
   105   135   134    1
   106     7     6   ar
   107   122   121   ar
   108   129   128   ar
   109   118   117   ar
   110     8     6   ar
   111   130   128   ar
   112     6     5    1
   113   133   134    1
   114   134   137    1
   115    23    24    1
   116    23    20    1
   117    24    25    1
   118   128   127    1
   119   121   119   ar
   120     5     2    1
   121   117   119   ar
   122   117   116    1
   123    20    21    1
   124    20    19    1
   125    18    17    1
   126    18    12    1
   127    25    19    1
   128    15    14    2
   129    17    16    1
   130    21    22    2
   131   113   116    1
   132   113   114    1
   133   113   112    1
   134   127   124    1
   135     2     3    1
   136     2     1    1
   137    16    13    1
   138   123   114   am
   139   123   124    1
   140   114   115    2
   141    12     3   am
   142    12    13    1
   143   124   125    1
   144     3     4    2
   145    14    13    1
   146   125   126    2
