@<TRIPOS>MOLECULE
tmp/1uswA00.pdb
 78 74 0 0 0
SMALL
GASTEIGER

@<TRIPOS>ATOM
      1  N         -0.3710   15.2240    9.2140 N.3    75  GLN75      -0.1245
      2  CA         0.4330   16.3910    9.5540 C.3    75  GLN75       0.1566
      3  C          1.6770   15.9650   10.3260 C.2    75  GLN75       0.2260
      4  O          2.6920   16.6520   10.3160 O.2    75  GLN75      -0.2867
      5  CB        -0.3740   17.3830   10.3990 C.3    75  GLN75       0.0367
      6  CG        -1.7050   17.8120    9.7970 C.3    75  GLN75       0.0905
      7  CD        -2.3370   18.9800   10.5460 C.2    75  GLN75       0.2608
      8  OE1       -2.2400   19.0840   11.7790 O.2    75  GLN75      -0.2717
      9  NE2       -3.0000   19.8630    9.8030 N.am   75  GLN75      -0.0878
     10  N          6.2700   16.0770    8.5950 N.3    79  ASN79      -0.1240
     11  CA         7.2930   16.8100    9.3390 C.3    79  ASN79       0.1653
     12  C          8.5930   15.9970    9.3980 C.2    79  ASN79       0.2266
     13  O          8.6600   14.9750   10.0870 O.2    79  ASN79      -0.2867
     14  CB         6.7980   17.0990   10.7660 C.3    79  ASN79       0.1155
     15  CG         7.6690   18.1070   11.4970 C.2    79  ASN79       0.2627
     16  OD1        8.8790   18.1610   11.2810 O.2    79  ASN79      -0.2716
     17  ND2        7.0610   18.8990   12.3760 N.am   79  ASN79      -0.0877
     18  N         11.5980   17.3240   10.3760 N.3    81  THR81      -0.1203
     19  CA        12.5320   18.0000   11.2660 C.3    81  THR81       0.1994
     20  C         12.9960   17.1000   12.3870 C.2    81  THR81       0.2618
     21  O         12.1820   16.4350   13.0220 O.2    81  THR81      -0.2717
     22  CB        11.8890   19.2410   11.8800 C.3    81  THR81       0.1784
     23  OG1       11.4390   20.1000   10.8300 O.3    81  THR81      -0.2211
     24  CG2       12.8890   19.9900   12.7580 C.3    81  THR81       0.0376
     25  N         14.3040   17.0790   12.6250 N.am   82  LEU82      -0.1965
     26  CA        14.8750   16.2640   13.6960 C.3    82  LEU82       0.1728
     27  C         14.8490   17.0460   15.0020 C.2    82  LEU82       0.2617
     28  O         14.9340   18.2760   14.9990 O.2    82  LEU82      -0.2715
     29  CB        16.3040   15.8490   13.3420 C.3    82  LEU82       0.0311
     30  CG        16.3920   14.6880   12.3410 C.3    82  LEU82       0.0022
     31  CD1       17.6560   14.7930   11.5260 C.3    82  LEU82       0.0001
     32  CD2       16.3210   13.3570   13.0960 C.3    82  LEU82       0.0001
     33  N         14.6900   16.3400   16.1170 N.am   83  THR83      -0.1937
     34  CA        14.6410   16.9900   17.4190 C.3    83  THR83       0.2013
     35  C         15.1760   16.0630   18.4860 C.2    83  THR83       0.2484
     36  O         14.9590   14.8630   18.4290 O.2    83  THR83      -0.2729
     37  CB        13.2010   17.3950   17.7950 C.3    83  THR83       0.1807
     38  OG1       13.2270   18.2000   18.9830 O.3    83  THR83      -0.2208
     39  CG2       12.3500   16.1610   18.0550 C.3    83  THR83       0.0379
     40  N         15.8870   16.6130   19.4800 N.am   84  PRO84      -0.2726
     41  CA        16.4550   15.8120   20.5680 C.3    84  PRO84       0.1402
     42  C         15.4090   14.9090   21.1840 C.2    84  PRO84       0.2269
     43  O         14.3000   15.3600   21.4690 O.2    84  PRO84      -0.2865
     44  CB        16.9350   16.8660   21.5590 C.3    84  PRO84       0.0296
     45  CG        17.3030   18.0070   20.6790 C.3    84  PRO84       0.0237
     46  CD        16.1590   18.0450   19.6950 C.3    84  PRO84       0.0939
     47  N         10.4730   14.3120   13.6300 N.3    98  GLY98      -0.1225
     48  CA         9.7620   15.4400   14.2020 C.3    98  GLY98       0.1811
     49  C          8.2860   15.2460   14.4840 C.2    98  GLY98       0.2280
     50  O          7.8240   15.4800   15.6050 O.2    98  GLY98      -0.2866
     51  N          7.6240   12.6330   17.0510 N.3   101  TYR101     -0.1227
     52  CA         7.9930   13.0030   18.4070 C.3   101  TYR101      0.1736
     53  C          6.7920   13.7470   18.9990 C.2   101  TYR101      0.2595
     54  O          6.5580   13.7020   20.2090 O.2   101  TYR101     -0.2718
     55  CB         9.2240   13.9090   18.4230 C.3   101  TYR101      0.0548
     56  CG         9.7740   14.1150   19.8190 C.ar  101  TYR101     -0.0200
     57  CD1       10.4670   13.0920   20.4670 C.ar  101  TYR101     -0.0009
     58  CD2        9.5600   15.3080   20.5130 C.ar  101  TYR101     -0.0009
     59  CE1       10.9320   13.2460   21.7690 C.ar  101  TYR101      0.0417
     60  CE2       10.0230   15.4720   21.8180 C.ar  101  TYR101      0.0417
     61  CZ        10.7100   14.4360   22.4400 C.ar  101  TYR101      0.1957
     62  OH        11.1980   14.5800   23.7250 O.3   101  TYR101     -0.2866
     63  N          6.0340   14.4320   18.1420 N.am  102  ILE102     -0.1980
     64  CA         4.8480   15.1560   18.5900 C.3   102  ILE102      0.1595
     65  C          3.8290   14.1510   19.0890 C.2   102  ILE102      0.2287
     66  O          3.1650   14.3750   20.1020 O.2   102  ILE102     -0.2864
     67  CB         4.1870   15.9700   17.4490 C.3   102  ILE102      0.0276
     68  CG1        5.1070   17.1160   17.0240 C.3   102  ILE102      0.0022
     69  CG2        2.8200   16.5000   17.9020 C.3   102  ILE102      0.0022
     70  CD1        5.4820   18.0620   18.1550 C.3   102  ILE102      0.0001
     71  N          5.2150   12.1760   22.5040 N.3   105  ILE105     -0.1245
     72  CA         5.0570   12.9220   23.7490 C.3   105  ILE105      0.1561
     73  C          3.6020   13.0740   24.1520 C.2   105  ILE105      0.2260
     74  O          3.3150   13.4390   25.2840 O.2   105  ILE105     -0.2867
     75  CB         5.6680   14.3400   23.6750 C.3   105  ILE105      0.0252
     76  CG1        4.9850   15.1630   22.5890 C.3   105  ILE105      0.0019
     77  CG2        7.1410   14.2500   23.4130 C.3   105  ILE105      0.0019
     78  CD1        5.4750   16.6000   22.5300 C.3   105  ILE105      0.0001
@<TRIPOS>BOND
     1    10    11    1
     2     1     2    1
     3    11    12    1
     4    11    14    1
     5    12    13    2
     6     2     3    1
     7     2     5    1
     8     6     5    1
     9     6     7    1
    10     9     7   am
    11     4     3    2
    12    18    19    1
    13     7     8    2
    14    14    15    1
    15    23    22    1
    16    19    22    1
    17    19    20    1
    18    16    15    2
    19    15    17   am
    20    31    30    1
    21    22    24    1
    22    30    32    1
    23    30    29    1
    24    20    25   am
    25    20    21    2
    26    25    26    1
    27    29    26    1
    28    47    48    1
    29    26    27    1
    30    48    49    1
    31    49    50    2
    32    28    27    2
    33    27    33   am
    34    33    34    1
    35    68    67    1
    36    68    70    1
    37    51    52    1
    38    34    37    1
    39    34    35    1
    40    67    69    1
    41    67    64    1
    42    37    39    1
    43    37    38    1
    44    63    64    1
    45    63    53   am
    46    52    55    1
    47    52    53    1
    48    55    56    1
    49    36    35    2
    50    35    40   am
    51    64    65    1
    52    53    54    2
    53    65    66    2
    54    40    46    1
    55    40    41    1
    56    46    45    1
    57    56    57   ar
    58    56    58   ar
    59    57    59   ar
    60    58    60   ar
    61    41    42    1
    62    41    44    1
    63    45    44    1
    64    42    43    2
    65    59    61   ar
    66    60    61   ar
    67    61    62    1
    68    71    72    1
    69    78    76    1
    70    76    75    1
    71    77    75    1
    72    75    72    1
    73    72    73    1
    74    73    74    2
