@<TRIPOS>MOLECULE
tmp/1usxA00.pdb
 174 165 0 0 0
SMALL
GASTEIGER

@<TRIPOS>ATOM
      1  N         30.2730   32.3410   78.9700 N.3    51  ARG51      -0.1231
      2  CA        30.0820   33.6090   78.2590 C.3    51  ARG51       0.1694
      3  C         28.8060   33.6990   77.4230 C.2    51  ARG51       0.2591
      4  O         28.0720   32.7280   77.2740 O.2    51  ARG51      -0.2718
      5  CB        31.2630   33.8800   77.3290 C.3    51  ARG51       0.0321
      6  CG        32.5770   34.1910   78.0180 C.3    51  ARG51       0.0489
      7  CD        33.4900   34.9380   77.0610 C.3    51  ARG51       0.2205
      8  NE        32.8910   36.1970   76.6250 N.pl3  51  ARG51      -0.0865
      9  CZ        33.0960   36.7520   75.4330 C.cat  51  ARG51       0.5346
     10  NH1       33.8880   36.1590   74.5510 N.pl3  51  ARG51       0.1354
     11  NH2       32.4990   37.8930   75.1150 N.pl3  51  ARG51       0.1354
     12  N         28.5690   34.8890   76.8760 N.am   52  ILE52      -0.1980
     13  CA        27.4310   35.1710   76.0050 C.3    52  ILE52       0.1595
     14  C         26.0590   35.1070   76.6770 C.2    52  ILE52       0.2287
     15  O         25.2310   34.2650   76.3490 O.2    52  ILE52      -0.2864
     16  CB        27.4360   34.2230   74.7890 C.3    52  ILE52       0.0276
     17  CG1       28.8720   33.8400   74.4350 C.3    52  ILE52       0.0022
     18  CG2       26.7890   34.8880   73.5950 C.3    52  ILE52       0.0022
     19  CD1       29.7980   34.9950   74.2610 C.3    52  ILE52       0.0001
     20  N         37.2410   25.8480   70.4920 N.3    76  HIS76      -0.1241
     21  CA        36.0310   25.9040   69.6840 C.3    76  HIS76       0.1621
     22  C         35.3020   24.5570   69.5280 C.2    76  HIS76       0.2264
     23  O         34.2330   24.4750   68.9150 O.2    76  HIS76      -0.2867
     24  CB        36.3930   26.4570   68.3100 C.3    76  HIS76       0.0745
     25  CG        35.3560   27.3720   67.7540 C.ar   76  HIS76       0.0817
     26  ND1       34.0190   27.0310   67.6970 N.ar   76  HIS76      -0.2268
     27  CD2       35.4490   28.6290   67.2600 C.ar   76  HIS76       0.1154
     28  CE1       33.3330   28.0410   67.1930 C.ar   76  HIS76       0.1986
     29  NE2       34.1770   29.0230   66.9190 N.ar   76  HIS76      -0.2212
     30  N         25.4560   27.9040   69.7360 N.3   113  LYS113     -0.1231
     31  CA        26.2400   29.1130   69.9950 C.3   113  LYS113      0.1693
     32  C         25.5400   30.4390   69.6900 C.2   113  LYS113      0.2592
     33  O         24.6360   30.5020   68.8580 O.2   113  LYS113     -0.2718
     34  CB        27.5530   29.0490   69.1940 C.3   113  LYS113      0.0285
     35  CG        28.5750   28.0680   69.7420 C.3   113  LYS113      0.0035
     36  CD        29.1810   28.6080   71.0230 C.3   113  LYS113      0.0206
     37  CE        29.9510   27.5490   71.7830 C.3   113  LYS113      0.1093
     38  NZ        30.9070   26.7820   70.9390 N.3   113  LYS113     -0.1314
     39  N         25.9680   31.4950   70.3800 N.am  114  SER114     -0.1952
     40  CA        25.4210   32.8250   70.1540 C.3   114  SER114      0.1924
     41  C         23.8890   32.8170   70.2820 C.2   114  SER114      0.2314
     42  O         23.1850   33.4580   69.5060 O.2   114  SER114     -0.2863
     43  CB        25.8530   33.2910   68.7510 C.3   114  SER114      0.2116
     44  OG        25.6140   34.6670   68.5170 O.3   114  SER114     -0.2180
     45  N         33.8650   30.6720   63.2360 N.3   135  GLU135     -0.1245
     46  CA        33.1440   31.7790   62.6210 C.3   135  GLU135      0.1567
     47  C         33.7500   32.1950   61.2900 C.2   135  GLU135      0.2260
     48  O         33.0390   32.3300   60.3000 O.2   135  GLU135     -0.2867
     49  CB        33.1160   32.9680   63.5810 C.3   135  GLU135      0.0388
     50  CG        32.4470   34.2030   63.0340 C.3   135  GLU135      0.1160
     51  CD        32.3090   35.2760   64.0840 C.2   135  GLU135      0.3649
     52  OE1       33.2820   35.4850   64.8370 O.co2 135  GLU135     -0.2457
     53  OE2       31.2360   35.9090   64.1500 O.co2 135  GLU135     -0.2457
     54  N         23.6390   34.1860   62.7380 N.3   176  TYR176     -0.1241
     55  CA        23.5340   33.8210   64.1380 C.3   176  TYR176      0.1605
     56  C         22.5810   34.7350   64.8910 C.2   176  TYR176      0.2264
     57  O         22.2850   35.8490   64.4510 O.2   176  TYR176     -0.2867
     58  CB        24.9120   33.9070   64.8030 C.3   176  TYR176      0.0534
     59  CG        26.0300   33.1550   64.1040 C.ar  176  TYR176     -0.0201
     60  CD1       26.4430   33.5060   62.8220 C.ar  176  TYR176     -0.0009
     61  CD2       26.7140   32.1290   64.7550 C.ar  176  TYR176     -0.0009
     62  CE1       27.5080   32.8600   62.2090 C.ar  176  TYR176      0.0417
     63  CE2       27.7810   31.4810   64.1520 C.ar  176  TYR176      0.0417
     64  CZ        28.1750   31.8500   62.8830 C.ar  176  TYR176      0.1957
     65  OH        29.2520   31.2220   62.2890 O.3   176  TYR176     -0.2866
     66  N         22.3010   37.2470   70.1770 N.3   179  VAL179     -0.1245
     67  CA        22.7160   36.8830   71.5330 C.3   179  VAL179      0.1561
     68  C         21.9740   37.6690   72.5980 C.2   179  VAL179      0.2260
     69  O         21.9130   37.2570   73.7500 O.2   179  VAL179     -0.2867
     70  CB        24.2310   37.0620   71.7840 C.3   179  VAL179      0.0252
     71  CG1       25.0000   36.9680   70.4910 C.3   179  VAL179      0.0019
     72  CG2       24.4870   38.3520   72.4900 C.3   179  VAL179      0.0019
     73  N         21.9390   38.3270   62.7880 N.3   194  TYR194     -0.1241
     74  CA        22.8840   38.9580   61.8560 C.3   194  TYR194      0.1605
     75  C         23.8320   37.9210   61.2840 C.2   194  TYR194      0.2264
     76  O         23.8260   36.7670   61.7010 O.2   194  TYR194     -0.2867
     77  CB        23.7030   40.0440   62.5510 C.3   194  TYR194      0.0534
     78  CG        24.8170   39.5140   63.4160 C.ar  194  TYR194     -0.0201
     79  CD1       24.5560   38.6450   64.4680 C.ar  194  TYR194     -0.0009
     80  CD2       26.1360   39.8770   63.1770 C.ar  194  TYR194     -0.0009
     81  CE1       25.5900   38.1500   65.2610 C.ar  194  TYR194      0.0417
     82  CE2       27.1690   39.3910   63.9630 C.ar  194  TYR194      0.0417
     83  CZ        26.8930   38.5270   65.0000 C.ar  194  TYR194      0.1957
     84  OH        27.9190   38.0340   65.7710 O.3   194  TYR194     -0.2866
     85  N         37.3880   41.5930   57.5180 N.3   240  ARG240     -0.1231
     86  CA        37.5790   40.4380   58.3850 C.3   240  ARG240      0.1694
     87  C         36.9750   39.1490   57.8280 C.2   240  ARG240      0.2592
     88  O         37.5110   38.0640   58.0470 O.2   240  ARG240     -0.2718
     89  CB        37.0050   40.7120   59.7790 C.3   240  ARG240      0.0321
     90  CG        37.1580   39.5440   60.7360 C.3   240  ARG240      0.0489
     91  CD        36.8750   39.9540   62.1640 C.3   240  ARG240      0.2205
     92  NE        36.8530   38.7990   63.0630 N.pl3 240  ARG240     -0.0865
     93  CZ        36.5740   38.8650   64.3630 C.cat 240  ARG240      0.5346
     94  NH1       36.2960   40.0360   64.9280 N.pl3 240  ARG240      0.1354
     95  NH2       36.5550   37.7560   65.0960 N.pl3 240  ARG240      0.1354
     96  N         35.8680   39.2670   57.1030 N.am  241  PHE241     -0.1976
     97  CA        35.2160   38.0910   56.5540 C.3   241  PHE241      0.1639
     98  C         35.2140   38.0510   55.0340 C.2   241  PHE241      0.2290
     99  O         34.2280   37.6590   54.4020 O.2   241  PHE241     -0.2864
    100  CB        33.7910   37.9830   57.1030 C.3   241  PHE241      0.0560
    101  CG        33.7310   37.9410   58.6060 C.ar  241  PHE241     -0.0200
    102  CD1       34.6380   37.1720   59.3300 C.ar  241  PHE241     -0.0042
    103  CD2       32.7860   38.6830   59.3030 C.ar  241  PHE241     -0.0042
    104  CE1       34.6090   37.1460   60.7300 C.ar  241  PHE241     -0.0003
    105  CE2       32.7500   38.6620   60.7080 C.ar  241  PHE241     -0.0003
    106  CZ        33.6640   37.8930   61.4180 C.ar  241  PHE241     -0.0000
    107  N         25.3860   43.2770   63.2490 N.3   277  ALA277     -0.1231
    108  CA        26.0900   42.9870   64.4970 C.3   277  ALA277      0.1694
    109  C         25.1340   42.3400   65.4950 C.2   277  ALA277      0.2591
    110  O         23.9480   42.1690   65.2040 O.2   277  ALA277     -0.2718
    111  CB        26.6680   44.2720   65.0850 C.3   277  ALA277      0.0304
    112  N         25.6430   41.9680   66.6660 N.am  278  GLU278     -0.1979
    113  CA        24.7930   41.3590   67.6770 C.3   278  GLU278      0.1602
    114  C         23.7020   42.3710   68.0170 C.2   278  GLU278      0.2287
    115  O         23.9520   43.5740   68.0210 O.2   278  GLU278     -0.2864
    116  CB        25.6270   40.9950   68.9050 C.3   278  GLU278      0.0415
    117  CG        26.7690   40.0450   68.5620 C.3   278  GLU278      0.1163
    118  CD        27.6030   39.6090   69.7600 C.2   278  GLU278      0.3649
    119  OE1       27.9540   40.4640   70.6050 O.co2 278  GLU278     -0.2457
    120  OE2       27.9310   38.4050   69.8310 O.co2 278  GLU278     -0.2457
    121  N         24.7140   46.2860   68.4730 N.3   293  ARG293     -0.1245
    122  CA        26.0600   46.4110   69.0050 C.3   293  ARG293      0.1563
    123  C         26.8160   47.3130   68.0400 C.2   293  ARG293      0.2260
    124  O         26.4630   47.3840   66.8670 O.2   293  ARG293     -0.2867
    125  CB        26.7220   45.0240   69.0720 C.3   293  ARG293      0.0307
    126  CG        28.2480   45.0350   69.1560 C.3   293  ARG293      0.0489
    127  CD        28.8270   43.6260   69.2790 C.3   293  ARG293      0.2205
    128  NE        30.2840   43.6520   69.4290 N.pl3 293  ARG293     -0.0865
    129  CZ        31.0390   42.5930   69.7160 C.cat 293  ARG293      0.5346
    130  NH1       30.4830   41.3950   69.8900 N.pl3 293  ARG293      0.1354
    131  NH2       32.3550   42.7330   69.8310 N.pl3 293  ARG293      0.1354
    132  N         29.7460   47.2520   66.2840 N.3   295  SER295     -0.1217
    133  CA        30.8890   46.5430   65.7530 C.3   295  SER295      0.1889
    134  C         31.5020   47.2910   64.5930 C.2   295  SER295      0.2288
    135  O         32.5570   46.9180   64.1080 O.2   295  SER295     -0.2866
    136  CB        30.4720   45.1450   65.3220 C.3   295  SER295      0.2089
    137  OG        29.9560   44.4360   66.4340 O.3   295  SER295     -0.2183
    138  N         35.3140   45.6140   62.3040 N.3   343  VAL343     -0.1231
    139  CA        34.4260   44.6340   62.9170 C.3   343  VAL343      0.1692
    140  C         35.0000   44.5070   64.3150 C.2   343  VAL343      0.2592
    141  O         35.8010   43.6190   64.5850 O.2   343  VAL343     -0.2718
    142  CB        34.4900   43.2520   62.2160 C.3   343  VAL343      0.0266
    143  CG1       33.7380   42.2250   63.0370 C.3   343  VAL343      0.0020
    144  CG2       33.8770   43.3280   60.8310 C.3   343  VAL343      0.0020
    145  N         34.5980   45.4100   65.2010 N.am  344  THR344     -0.1953
    146  CA        35.1110   45.4180   66.5610 C.3   344  THR344      0.1897
    147  C         33.9950   45.6780   67.5580 C.2   344  THR344      0.2313
    148  O         32.8810   45.1900   67.3980 O.2   344  THR344     -0.2863
    149  CB        36.1890   46.5100   66.6870 C.3   344  THR344      0.1794
    150  OG1       36.8300   46.4330   67.9660 O.3   344  THR344     -0.2208
    151  CG2       35.5600   47.8760   66.4970 C.3   344  THR344      0.0378
    152  N         38.8770   46.4200   76.5970 N.3   375  ARG375     -0.1245
    153  CA        37.6150   46.1250   77.2860 C.3   375  ARG375      0.1563
    154  C         37.8080   46.2060   78.7960 C.2   375  ARG375      0.2260
    155  O         37.9920   45.1740   79.4550 O.2   375  ARG375     -0.2867
    156  CB        37.1230   44.7180   76.9230 C.3   375  ARG375      0.0307
    157  CG        36.5750   44.5740   75.5090 C.3   375  ARG375      0.0489
    158  CD        36.1600   43.1370   75.2560 C.3   375  ARG375      0.2205
    159  NE        35.3460   42.9800   74.0540 N.pl3 375  ARG375     -0.0865
    160  CZ        34.9460   41.7990   73.5930 C.cat 375  ARG375      0.5346
    161  NH1       35.2930   40.6910   74.2350 N.pl3 375  ARG375      0.1354
    162  NH2       34.1940   41.7220   72.5060 N.pl3 375  ARG375      0.1354
    163  N         30.7160   41.4200   77.6480 N.3   403  TYR403     -0.1241
    164  CA        29.2930   41.6780   77.4470 C.3   403  TYR403      0.1605
    165  C         28.5510   42.1250   78.7090 C.2   403  TYR403      0.2264
    166  O         28.9220   41.7790   79.8330 O.2   403  TYR403     -0.2867
    167  CB        28.6040   40.4400   76.8660 C.3   403  TYR403      0.0534
    168  CG        28.9700   40.1190   75.4340 C.ar  403  TYR403     -0.0201
    169  CD1       30.1540   40.5880   74.8660 C.ar  403  TYR403     -0.0009
    170  CD2       28.1540   39.2950   74.6610 C.ar  403  TYR403     -0.0009
    171  CE1       30.5150   40.2380   73.5590 C.ar  403  TYR403      0.0417
    172  CE2       28.5070   38.9370   73.3610 C.ar  403  TYR403      0.0417
    173  CZ        29.6860   39.4100   72.8160 C.ar  403  TYR403      0.1957
    174  OH        30.0330   39.0360   71.5410 O.3   403  TYR403     -0.2866
@<TRIPOS>BOND
     1    99    98    2
     2    98    97    1
     3    97   100    1
     4    97    96    1
     5   100   101    1
     6    96    87   am
     7    85    86    1
     8    87    88    2
     9    87    86    1
    10    86    89    1
    11   101   103   ar
    12   101   102   ar
    13   103   105   ar
    14   102   104   ar
    15    89    90    1
    16    48    47    2
    17   105   106   ar
    18   104   106   ar
    19    90    91    1
    20   144   142    1
    21    75    76    2
    22    75    74    1
    23    47    46    1
    24    74    77    1
    25    74    73    1
    26    91    92    1
    27    62    60   ar
    28    62    64   ar
    29   142   139    1
    30   142   143    1
    31    65    64    1
    32   138   139    1
    33    77    78    1
    34    46    45    1
    35    46    49    1
    36    54    55    1
    37    60    59   ar
    38    64    63   ar
    39   139   140    1
    40    50    49    1
    41    50    51    1
    42    92    93    2
    43    80    78   ar
    44    80    82   ar
    45   107   108    1
    46    78    79   ar
    47    82    83   ar
    48    51    53   ar
    49    51    52   ar
    50    59    61   ar
    51    59    58    1
    52   135   134    2
    53    55    58    1
    54    55    56    1
    55    63    61   ar
    56   140   141    2
    57   140   145   am
    58    93    94    1
    59    93    95    1
    60    57    56    2
    61    79    81   ar
    62   108   111    1
    63   108   109    1
    64   134   133    1
    65    83    81   ar
    66    83    84    1
    67   145   146    1
    68   110   109    2
    69   136   133    1
    70   136   137    1
    71   109   112   am
    72   133   132    1
    73   151   149    1
    74   146   149    1
    75   146   147    1
    76   112   113    1
    77   149   150    1
    78   124   123    2
    79    29    28   ar
    80    29    27   ar
    81    28    26   ar
    82    27    25   ar
    83   148   147    2
    84   113   114    1
    85   113   116    1
    86    26    25   ar
    87    25    24    1
    88   114   115    2
    89   123   122    1
    90    24    21    1
    91   121   122    1
    92    44    43    1
    93   117   116    1
    94   117   118    1
    95    43    40    1
    96    33    32    2
    97    23    22    2
    98   122   125    1
    99   125   126    1
   100   126   127    1
   101    34    35    1
   102    34    31    1
   103   127   128    1
   104   128   129    2
   105    42    41    2
   106    22    21    1
   107    21    20    1
   108    32    31    1
   109    32    39   am
   110   129   131    1
   111   129   130    1
   112    30    31    1
   113    35    36    1
   114   118   120   ar
   115   118   119   ar
   116    40    41    1
   117    40    39    1
   118    66    67    1
   119    71    70    1
   120    38    37    1
   121    36    37    1
   122    67    70    1
   123    67    68    1
   124   174   173    1
   125    70    72    1
   126   162   160    1
   127    68    69    2
   128   173   172   ar
   129   173   171   ar
   130   172   170   ar
   131   171   169   ar
   132   160   159    2
   133   160   161    1
   134    18    16    1
   135   159   158    1
   136    19    17    1
   137    17    16    1
   138    10     9    1
   139   170   168   ar
   140    16    13    1
   141   169   168   ar
   142    11     9    1
   143   158   157    1
   144     9     8    2
   145   168   167    1
   146   157   156    1
   147    13    14    1
   148    13    12    1
   149    15    14    2
   150   152   153    1
   151     8     7    1
   152   167   164    1
   153    12     3   am
   154   156   153    1
   155     7     6    1
   156     4     3    2
   157   153   154    1
   158     5     6    1
   159     5     2    1
   160     3     2    1
   161   164   163    1
   162   164   165    1
   163     2     1    1
   164   165   166    2
   165   154   155    2
