@<TRIPOS>MOLECULE
tmp/1ut6A00.pdb
 207 204 0 0 0
SMALL
GASTEIGER

@<TRIPOS>ATOM
      1  N         -7.3640   63.6370   65.9810 N.3    67  TYR67      -0.1241
      2  CA        -7.0140   63.8080   67.3900 C.3    67  TYR67       0.1605
      3  C         -6.4000   65.2250   67.5210 C.2    67  TYR67       0.2264
      4  O         -5.6300   65.6520   66.6690 O.2    67  TYR67      -0.2867
      5  CB        -5.9900   62.7490   67.7960 C.3    67  TYR67       0.0534
      6  CG        -5.4290   62.9170   69.1800 C.ar   67  TYR67      -0.0201
      7  CD1       -6.0650   62.3630   70.2930 C.ar   67  TYR67      -0.0009
      8  CD2       -4.2860   63.6850   69.3850 C.ar   67  TYR67      -0.0009
      9  CE1       -5.5670   62.5880   71.5850 C.ar   67  TYR67       0.0417
     10  CE2       -3.7870   63.9100   70.6570 C.ar   67  TYR67       0.0417
     11  CZ        -4.4290   63.3680   71.7490 C.ar   67  TYR67       0.1957
     12  OH        -3.9410   63.6570   73.0040 O.3    67  TYR67      -0.2866
     13  N         -4.1740   68.0170   69.6850 N.3    69  ASP69      -0.1239
     14  CA        -3.1560   68.1910   70.7110 C.3    69  ASP69       0.1674
     15  C         -3.5910   69.1640   71.8040 C.2    69  ASP69       0.2266
     16  O         -4.0090   70.2710   71.5160 O.2    69  ASP69      -0.2867
     17  CB        -1.8580   68.6780   70.0550 C.3    69  ASP69       0.1410
     18  CG        -0.7170   68.8610   71.0460 C.2    69  ASP69       0.3668
     19  OD1       -0.8170   68.4420   72.2190 O.co2  69  ASP69      -0.2456
     20  OD2        0.3180   69.4170   70.6430 O.co2  69  ASP69      -0.2456
     21  N         -1.5370   69.1420   74.9770 N.3    71  GLN71      -0.1245
     22  CA        -0.4410   69.2140   75.9650 C.3    71  GLN71       0.1566
     23  C         -0.2200   70.6490   76.4760 C.2    71  GLN71       0.2260
     24  O         -0.2450   70.9100   77.6710 O.2    71  GLN71      -0.2867
     25  CB         0.8800   68.7540   75.3570 C.3    71  GLN71       0.0367
     26  CG         1.0450   67.2660   75.2320 C.3    71  GLN71       0.0905
     27  CD         1.3460   66.5790   76.5530 C.2    71  GLN71       0.2608
     28  OE1        1.7030   65.3890   76.5770 O.2    71  GLN71      -0.2717
     29  NE2        1.1910   67.3140   77.6650 N.am   71  GLN71      -0.0878
     30  N          3.5310   77.0920   69.9000 N.3    77  GLY77      -0.1210
     31  CA         4.4260   76.0570   69.4180 C.3    77  GLY77       0.1956
     32  C          3.6950   74.7940   69.0150 C.2    77  GLY77       0.2612
     33  O          4.0570   74.1470   68.0240 O.2    77  GLY77      -0.2717
     34  N          2.6640   74.4470   69.7890 N.am   78  SER78      -0.1952
     35  CA         1.8740   73.2690   69.5310 C.3    78  SER78       0.1924
     36  C          0.5340   73.5660   68.8630 C.2    78  SER78       0.2314
     37  O          0.0690   72.7380   68.0720 O.2    78  SER78      -0.2863
     38  CB         1.6350   72.4970   70.8270 C.3    78  SER78       0.2116
     39  OG         1.0080   73.3080   71.7930 O.3    78  SER78      -0.2180
     40  N         -0.0720   73.5130   64.8820 N.3    81  TRP81      -0.1241
     41  CA        -0.2600   72.2490   64.1920 C.3    81  TRP81       0.1605
     42  C         -1.6980   71.7180   64.2690 C.2    81  TRP81       0.2264
     43  O         -2.0870   70.8880   63.4390 O.2    81  TRP81      -0.2867
     44  CB         0.7030   71.1910   64.7690 C.3    81  TRP81       0.0550
     45  CG         2.1510   71.5960   64.7070 C.ar   81  TRP81       0.0003
     46  CD1        2.9620   71.9090   65.7580 C.ar   81  TRP81       0.0946
     47  CD2        2.9470   71.7550   63.5210 C.ar   81  TRP81       0.0152
     48  NE1        4.2240   72.2550   65.3040 N.ar   81  TRP81      -0.2442
     49  CE2        4.2420   72.1700   63.9370 C.ar   81  TRP81       0.0810
     50  CE3        2.6930   71.5890   62.1450 C.ar   81  TRP81       0.0012
     51  CZ2        5.2810   72.4230   63.0280 C.ar   81  TRP81       0.0191
     52  CZ3        3.7290   71.8430   61.2330 C.ar   81  TRP81       0.0001
     53  CH2        5.0060   72.2570   61.6840 C.ar   81  TRP81       0.0015
     54  N          1.9160   66.7380   56.6360 N.3   114  GLY114     -0.1210
     55  CA         2.3490   65.6760   57.5350 C.3   114  GLY114      0.1956
     56  C          1.4330   65.5860   58.7680 C.2   114  GLY114      0.2612
     57  O          0.3410   66.1700   58.8130 O.2   114  GLY114     -0.2717
     58  N          1.8830   64.8580   59.7870 N.am  115  GLY115     -0.1956
     59  CA         1.0730   64.6760   60.9800 C.3   115  GLY115      0.1869
     60  C          0.8960   63.1980   61.3220 C.2   115  GLY115      0.2309
     61  O         -0.1690   62.8150   61.7930 O.2   115  GLY115     -0.2863
     62  N         -2.1900   60.5540   61.4080 N.3   118  TYR118     -0.1227
     63  CA        -3.2980   60.5820   62.3510 C.3   118  TYR118      0.1736
     64  C         -3.8150   62.0130   62.5380 C.2   118  TYR118      0.2596
     65  O         -4.7940   62.2420   63.2630 O.2   118  TYR118     -0.2718
     66  CB        -2.8740   60.0130   63.7190 C.3   118  TYR118      0.0548
     67  CG        -2.0200   60.9510   64.5220 C.ar  118  TYR118     -0.0200
     68  CD1       -2.6020   61.9820   65.2680 C.ar  118  TYR118     -0.0009
     69  CD2       -0.6270   60.8470   64.5110 C.ar  118  TYR118     -0.0009
     70  CE1       -1.8270   62.8880   65.9830 C.ar  118  TYR118      0.0417
     71  CE2        0.1730   61.7420   65.2330 C.ar  118  TYR118      0.0417
     72  CZ        -0.4410   62.7640   65.9740 C.ar  118  TYR118      0.1957
     73  OH         0.3120   63.6350   66.7560 O.3   118  TYR118     -0.2866
     74  N         -3.1500   62.9740   61.9100 N.am  119  SER119     -0.1952
     75  CA        -3.5500   64.3550   62.0530 C.3   119  SER119      0.1924
     76  C         -3.0220   65.1740   60.8920 C.2   119  SER119      0.2314
     77  O         -2.3200   64.6400   60.0260 O.2   119  SER119     -0.2863
     78  CB        -3.0120   64.9150   63.3710 C.3   119  SER119      0.2116
     79  OG        -1.6060   64.9420   63.3570 O.3   119  SER119     -0.2180
     80  N         -3.3790   75.2270   57.8250 N.3   124  LEU124     -0.1245
     81  CA        -2.5320   75.8250   58.8540 C.3   124  LEU124      0.1561
     82  C         -1.7970   77.0820   58.3480 C.2   124  LEU124      0.2260
     83  O         -1.3940   77.1470   57.1690 O.2   124  LEU124     -0.2867
     84  CB        -1.4800   74.8030   59.3180 C.3   124  LEU124      0.0270
     85  CG        -1.9640   73.4350   59.8220 C.3   124  LEU124      0.0019
     86  CD1       -0.7800   72.5610   60.2490 C.3   124  LEU124      0.0001
     87  CD2       -2.9190   73.6330   60.9720 C.3   124  LEU124      0.0001
     88  N          1.2960   76.6530   56.3850 N.3   127  TYR127     -0.1241
     89  CA         1.1760   76.0760   55.0300 C.3   127  TYR127      0.1605
     90  C          0.5620   77.0500   54.0230 C.2   127  TYR127      0.2264
     91  O          0.2100   76.6550   52.9140 O.2   127  TYR127     -0.2867
     92  CB         0.3450   74.7750   55.0120 C.3   127  TYR127      0.0534
     93  CG         0.8620   73.6670   55.8980 C.ar  127  TYR127     -0.0201
     94  CD1        2.2380   73.5120   56.1770 C.ar  127  TYR127     -0.0009
     95  CD2       -0.0290   72.7740   56.4840 C.ar  127  TYR127     -0.0009
     96  CE1        2.6830   72.4950   57.0320 C.ar  127  TYR127      0.0417
     97  CE2        0.3930   71.7710   57.3130 C.ar  127  TYR127      0.0417
     98  CZ         1.7270   71.6240   57.5970 C.ar  127  TYR127      0.1957
     99  OH         2.0580   70.6070   58.4670 O.3   127  TYR127     -0.2866
    100  N          6.1160   66.9710   54.1140 N.3   196  GLU196     -0.1231
    101  CA         6.9880   66.8080   55.2630 C.3   196  GLU196      0.1699
    102  C          6.4740   65.7360   56.2100 C.2   196  GLU196      0.2592
    103  O          5.2830   65.5960   56.3730 O.2   196  GLU196     -0.2718
    104  CB         7.1390   68.1530   56.0060 C.3   196  GLU196      0.0402
    105  CG         8.0400   68.1010   57.2400 C.3   196  GLU196      0.1161
    106  CD         7.2850   67.7510   58.5110 C.2   196  GLU196      0.3649
    107  OE1        6.0530   67.7460   58.4470 O.co2 196  GLU196     -0.2457
    108  OE2        7.8970   67.4850   59.5800 O.co2 196  GLU196     -0.2457
    109  N          7.3860   64.9740   56.8140 N.am  197  SER197     -0.1952
    110  CA         7.0130   63.9450   57.7790 C.3   197  SER197      0.1924
    111  C          6.1480   62.8810   57.0730 C.2   197  SER197      0.2314
    112  O          6.5860   62.3510   56.0710 O.2   197  SER197     -0.2863
    113  CB         6.2620   64.6090   58.9290 C.3   197  SER197      0.2116
    114  OG         6.3440   63.7980   60.0880 O.3   197  SER197     -0.2180
    115  N         -5.6100   55.5930   70.1350 N.3   276  TRP276     -0.1241
    116  CA        -4.2920   55.2680   70.6420 C.3   276  TRP276      0.1605
    117  C         -4.2080   53.9850   71.4090 C.2   276  TRP276      0.2264
    118  O         -3.1070   53.4450   71.5520 O.2   276  TRP276     -0.2867
    119  CB        -3.7500   56.4060   71.4890 C.3   276  TRP276      0.0550
    120  CG        -3.6040   57.6070   70.6940 C.ar  276  TRP276      0.0003
    121  CD1       -4.5250   58.5980   70.5400 C.ar  276  TRP276      0.0946
    122  CD2       -2.4820   57.9640   69.8820 C.ar  276  TRP276      0.0152
    123  NE1       -4.0410   59.5540   69.6840 N.ar  276  TRP276     -0.2442
    124  CE2       -2.7880   59.1910   69.2680 C.ar  276  TRP276      0.0810
    125  CE3       -1.2430   57.3660   69.6200 C.ar  276  TRP276      0.0012
    126  CZ2       -1.8930   59.8440   68.4040 C.ar  276  TRP276      0.0191
    127  CZ3       -0.3480   58.0120   68.7640 C.ar  276  TRP276      0.0001
    128  CH2       -0.6760   59.2390   68.1680 C.ar  276  TRP276      0.0015
    129  N         10.8030   66.5740   69.8100 N.3   327  PHE327     -0.1241
    130  CA         9.3770   66.7170   70.0780 C.3   327  PHE327      0.1605
    131  C          8.7170   65.4090   70.5790 C.2   327  PHE327      0.2264
    132  O          7.9140   65.4170   71.5260 O.2   327  PHE327     -0.2867
    133  CB         8.7380   67.3330   68.8120 C.3   327  PHE327      0.0534
    134  CG         7.4900   66.6890   68.3560 C.ar  327  PHE327     -0.0203
    135  CD1        6.3710   66.6560   69.1580 C.ar  327  PHE327     -0.0042
    136  CD2        7.4370   66.1000   67.1090 C.ar  327  PHE327     -0.0042
    137  CE1        5.1960   66.0270   68.7270 C.ar  327  PHE327     -0.0003
    138  CE2        6.2760   65.4720   66.6650 C.ar  327  PHE327     -0.0003
    139  CZ         5.1570   65.4330   67.4750 C.ar  327  PHE327     -0.0000
    140  N          6.8750   64.8840   74.2650 N.3   331  TYR331     -0.1241
    141  CA         5.5320   64.3630   74.4530 C.3   331  TYR331      0.1605
    142  C          5.3940   63.0070   75.1320 C.2   331  TYR331      0.2264
    143  O          4.3860   62.7910   75.7940 O.2   331  TYR331     -0.2867
    144  CB         4.7510   64.3240   73.1380 C.3   331  TYR331      0.0534
    145  CG         4.2240   65.6790   72.7190 C.ar  331  TYR331     -0.0201
    146  CD1        5.0970   66.7110   72.3360 C.ar  331  TYR331     -0.0009
    147  CD2        2.8490   65.9470   72.7140 C.ar  331  TYR331     -0.0009
    148  CE1        4.6130   67.9720   71.9630 C.ar  331  TYR331      0.0417
    149  CE2        2.3540   67.2070   72.3370 C.ar  331  TYR331      0.0417
    150  CZ         3.2350   68.2090   71.9690 C.ar  331  TYR331      0.1957
    151  OH         2.7530   69.4390   71.6230 O.3   331  TYR331     -0.2866
    152  N         10.0340   77.1620   71.4980 N.3   429  TRP429     -0.1241
    153  CA        10.3380   75.8820   72.1940 C.3   429  TRP429      0.1605
    154  C         11.6700   75.9640   72.9900 C.2   429  TRP429      0.2264
    155  O         12.5830   76.7020   72.6060 O.2   429  TRP429     -0.2867
    156  CB        10.3980   74.7000   71.1760 C.3   429  TRP429      0.0550
    157  CG         9.0540   74.3170   70.5630 C.ar  429  TRP429      0.0003
    158  CD1        8.5840   74.6550   69.3170 C.ar  429  TRP429      0.0946
    159  CD2        7.9940   73.5960   71.2020 C.ar  429  TRP429      0.0152
    160  NE1        7.3040   74.1950   69.1480 N.ar  429  TRP429     -0.2442
    161  CE2        6.9150   73.5390   70.2860 C.ar  429  TRP429      0.0810
    162  CE3        7.8460   73.0040   72.4610 C.ar  429  TRP429      0.0012
    163  CZ2        5.6970   72.9010   70.5910 C.ar  429  TRP429      0.0191
    164  CZ3        6.6440   72.3760   72.7700 C.ar  429  TRP429      0.0001
    165  CH2        5.5830   72.3290   71.8300 C.ar  429  TRP429      0.0015
    166  N         15.5530   71.3540   72.4870 N.3   433  MET433     -0.1245
    167  CA        14.9100   70.6480   71.3890 C.3   433  MET433      0.1570
    168  C         15.5830   70.9230   70.0400 C.2   433  MET433      0.2261
    169  O         15.2760   70.2690   69.0290 O.2   433  MET433     -0.2867
    170  CB        13.4130   70.9980   71.3510 C.3   433  MET433      0.0387
    171  CG        12.6040   70.4720   72.5510 C.3   433  MET433      0.0595
    172  SD        10.9020   71.1460   72.6390 S.3   433  MET433     -0.1393
    173  CE        10.0660   69.9790   71.4830 C.3   433  MET433      0.0692
    174  N         13.9300   71.3590   65.5730 N.3   436  ILE436     -0.1231
    175  CA        12.7550   70.4960   65.6440 C.3   436  ILE436      0.1692
    176  C         12.0570   70.0030   64.3640 C.2   436  ILE436      0.2592
    177  O         12.0180   70.6870   63.3210 O.2   436  ILE436     -0.2718
    178  CB        11.7080   71.2000   66.5090 C.3   436  ILE436      0.0266
    179  CG1       12.3640   71.5620   67.8470 C.3   436  ILE436      0.0019
    180  CG2       10.4400   70.3420   66.6770 C.3   436  ILE436      0.0020
    181  CD1       11.5670   72.5210   68.6260 C.3   436  ILE436      0.0001
    182  N         11.5170   68.7880   64.4860 N.am  437  HIS437     -0.1962
    183  CA        10.7500   68.1370   63.4430 C.3   437  HIS437      0.1787
    184  C          9.6480   69.0910   63.0460 C.2   437  HIS437      0.2621
    185  O          8.8330   69.4590   63.8790 O.2   437  HIS437     -0.2715
    186  CB        10.1110   66.8880   64.0000 C.3   437  HIS437      0.0785
    187  CG         9.4830   66.0090   62.9670 C.ar  437  HIS437      0.0821
    188  ND1       10.2030   65.4540   61.9270 N.ar  437  HIS437     -0.2267
    189  CD2        8.2280   65.5000   62.8780 C.ar  437  HIS437      0.1154
    190  CE1        9.4180   64.6290   61.2530 C.ar  437  HIS437      0.1986
    191  NE2        8.2180   64.6360   61.8120 N.ar  437  HIS437     -0.2212
    192  N          9.6280   69.4760   61.7770 N.am  438  GLY438     -0.1940
    193  CA         8.6110   70.3800   61.2770 C.3   438  GLY438      0.2014
    194  C          9.0320   71.8480   61.1680 C.2   438  GLY438      0.2638
    195  O          8.3310   72.6320   60.5270 O.2   438  GLY438     -0.2714
    196  N         10.1790   72.2280   61.7330 N.am  439  TYR439     -0.1973
    197  CA        10.5410   73.6290   61.6930 C.3   439  TYR439      0.1639
    198  C         11.3110   74.1800   60.5180 C.2   439  TYR439      0.2290
    199  O         11.7280   75.3580   60.5430 O.2   439  TYR439     -0.2864
    200  CB        11.1620   74.0430   63.0380 C.3   439  TYR439      0.0560
    201  CG        10.0710   74.1500   64.0830 C.ar  439  TYR439     -0.0198
    202  CD1        9.4220   73.0050   64.5530 C.ar  439  TYR439     -0.0009
    203  CD2        9.5440   75.3910   64.4390 C.ar  439  TYR439     -0.0009
    204  CE1        8.2540   73.0880   65.3410 C.ar  439  TYR439      0.0417
    205  CE2        8.3690   75.4890   65.2230 C.ar  439  TYR439      0.0417
    206  CZ         7.7320   74.3310   65.6650 C.ar  439  TYR439      0.1957
    207  OH         6.5760   74.4160   66.4060 O.3   439  TYR439     -0.2866
@<TRIPOS>BOND
     1    91    90    2
     2    90    89    1
     3   100   101    1
     4    92    89    1
     5    92    93    1
     6    89    88    1
     7   101   104    1
     8   101   102    1
     9    93    94   ar
    10    93    95   ar
    11   104   105    1
    12   112   111    2
    13    94    96   ar
    14   102   103    2
    15   102   109   am
    16    95    97   ar
    17    54    55    1
    18   109   110    1
    19    96    98   ar
    20   111   110    1
    21    83    82    2
    22   105   106    1
    23    97    98   ar
    24    55    56    1
    25    98    99    1
    26   110   113    1
    27    80    81    1
    28    82    81    1
    29   107   106   ar
    30   106   108   ar
    31    56    57    2
    32    56    58   am
    33    81    84    1
    34   113   114    1
    35    84    85    1
    36    58    59    1
    37    85    86    1
    38    85    87    1
    39    77    76    2
    40   198   199    2
    41   198   197    1
    42   195   194    2
    43    76    75    1
    44    59    60    1
    45   194   193    1
    46   194   196   am
    47    52    53   ar
    48    52    50   ar
    49   190   191   ar
    50   190   188   ar
    51   193   192    1
    52    60    61    2
    53    62    63    1
    54    53    51   ar
    55   197   196    1
    56   197   200    1
    57   192   184   am
    58   191   189   ar
    59    74    75    1
    60    74    64   am
    61   188   187   ar
    62    75    78    1
    63    50    47   ar
    64    63    64    1
    65    63    66    1
    66    64    65    2
    67   189   187   ar
    68   187   186    1
    69    51    49   ar
    70   200   201    1
    71   184   183    1
    72   184   185    2
    73   177   176    2
    74    79    78    1
    75    43    42    2
    76   183   186    1
    77   183   182    1
    78    47    49   ar
    79    47    45   ar
    80    66    67    1
    81    49    48   ar
    82   201   203   ar
    83   201   202   ar
    84    41    42    1
    85    41    44    1
    86    41    40    1
    87   176   182   am
    88   176   175    1
    89   203   205   ar
    90    69    67   ar
    91    69    71   ar
    92    67    68   ar
    93   202   204   ar
    94    45    44    1
    95    45    46   ar
    96   205   206   ar
    97    71    72   ar
    98    68    70   ar
    99    48    46   ar
   100   204   206   ar
   101   174   175    1
   102   175   178    1
   103   206   207    1
   104    72    70   ar
   105    72    73    1
   106     1     2    1
   107   178   180    1
   108   178   179    1
   109   138   136   ar
   110   138   139   ar
   111     4     3    2
   112   136   134   ar
   113     2     3    1
   114     2     5    1
   115   139   137   ar
   116     5     6    1
   117   179   181    1
   118    33    32    2
   119    37    36    2
   120   128   126   ar
   121   128   127   ar
   122   134   133    1
   123   134   135   ar
   124   126   124   ar
   125   137   135   ar
   126   127   125   ar
   127   133   130    1
   128    36    35    1
   129    32    31    1
   130    32    34   am
   131   169   168    2
   132   160   158   ar
   133   160   161   ar
   134     6     8   ar
   135     6     7   ar
   136   124   123   ar
   137   124   122   ar
   138   158   157   ar
   139     8    10   ar
   140    31    30    1
   141    35    34    1
   142    35    38    1
   143   125   122   ar
   144   123   121   ar
   145    13    14    1
   146   129   130    1
   147   122   120   ar
   148   168   167    1
   149    17    14    1
   150    17    18    1
   151   130   131    1
   152   115   116    1
   153   161   163   ar
   154   161   159   ar
   155     7     9   ar
   156   121   120   ar
   157   157   156    1
   158   157   159   ar
   159   131   132    2
   160   163   165   ar
   161   116   117    1
   162   116   119    1
   163    20    18   ar
   164    10    11   ar
   165   120   119    1
   166    14    15    1
   167    38    39    1
   168    18    19   ar
   169   156   153    1
   170   159   162   ar
   171   170   167    1
   172   170   171    1
   173   167   166    1
   174   117   118    2
   175   173   172    1
   176   152   153    1
   177    16    15    2
   178     9    11   ar
   179   151   150    1
   180    11    12    1
   181   165   164   ar
   182   148   150   ar
   183   148   146   ar
   184   150   149   ar
   185   153   154    1
   186   146   145   ar
   187   149   147   ar
   188   162   164   ar
   189   171   172    1
   190   155   154    2
   191   147   145   ar
   192   145   144    1
   193   144   141    1
   194   140   141    1
   195   141   142    1
   196    21    22    1
   197   142   143    2
   198    26    25    1
   199    26    27    1
   200    25    22    1
   201    22    23    1
   202    23    24    2
   203    27    28    2
   204    27    29   am
