@<TRIPOS>MOLECULE
tmp/1utcB00.pdb
 108 102 0 0 0
SMALL
GASTEIGER

@<TRIPOS>ATOM
      1  N         28.0690   50.6990   17.8430 N.3    21  ALA21      -0.1231
      2  CA        27.6030   51.2540   19.1070 C.3    21  ALA21       0.1694
      3  C         28.7990   51.7730   19.9230 C.2    21  ALA21       0.2592
      4  O         28.6530   52.6610   20.7600 O.2    21  ALA21      -0.2718
      5  CB        26.8400   50.2080   19.8910 C.3    21  ALA21       0.0304
      6  N         29.9740   51.2160   19.6500 N.am   22  ASN22      -0.1974
      7  CA        31.2300   51.5840   20.3380 C.3    22  ASN22       0.1688
      8  C         32.0770   52.6690   19.6750 C.2    22  ASN22       0.2292
      9  O         33.0770   53.0850   20.2480 O.2    22  ASN22      -0.2864
     10  CB        32.0460   50.3070   20.5860 C.3    22  ASN22       0.1181
     11  CG        31.2570   49.3020   21.4120 C.2    22  ASN22       0.2629
     12  OD1       30.6150   49.6910   22.3710 O.2    22  ASN22      -0.2716
     13  ND2       31.2600   48.0390   21.0210 N.am   22  ASN22      -0.0877
     14  N         32.0760   59.3070   21.0800 N.3    25  PHE25      -0.1227
     15  CA        32.8520   60.0460   22.0480 C.3    25  PHE25       0.1736
     16  C         32.9750   59.3420   23.4110 C.2    25  PHE25       0.2596
     17  O         33.9810   59.5350   24.0910 O.2    25  PHE25      -0.2718
     18  CB        32.2070   61.4300   22.2090 C.3    25  PHE25       0.0547
     19  CG        32.8810   62.3320   23.1900 C.ar   25  PHE25      -0.0202
     20  CD1       34.0640   63.0130   22.8550 C.ar   25  PHE25      -0.0042
     21  CD2       32.3090   62.5680   24.4410 C.ar   25  PHE25      -0.0042
     22  CE1       34.6770   63.8880   23.7750 C.ar   25  PHE25      -0.0003
     23  CE2       32.9230   63.4320   25.3620 C.ar   25  PHE25      -0.0003
     24  CZ        34.1130   64.0920   25.0200 C.ar   25  PHE25      -0.0000
     25  N         31.9730   58.5330   23.8150 N.am   26  SER26      -0.1938
     26  CA        31.9960   57.9390   25.1770 C.3    26  SER26       0.2055
     27  C         32.7470   56.6310   25.2870 C.2    26  SER26       0.2643
     28  O         33.0450   56.2200   26.3910 O.2    26  SER26      -0.2714
     29  CB        30.6000   57.8470   25.8430 C.3    26  SER26       0.2130
     30  OG        29.6230   57.3820   24.9550 O.3    26  SER26      -0.2179
     31  N         33.0850   56.0030   24.1550 N.am   27  THR27      -0.1950
     32  CA        33.7960   54.7370   24.1910 C.3    27  THR27       0.1897
     33  C         35.0740   54.6620   23.3410 C.2    27  THR27       0.2313
     34  O         35.8400   53.6970   23.4680 O.2    27  THR27      -0.2863
     35  CB        32.8530   53.6190   23.7820 C.3    27  THR27       0.1794
     36  OG1       32.2410   53.9530   22.5410 O.3    27  THR27      -0.2208
     37  CG2       31.6820   53.5060   24.7710 C.3    27  THR27       0.0378
     38  N         36.5900   50.8600   23.9900 N.3    39  ARG39      -0.1245
     39  CA        35.9980   50.1480   25.1150 C.3    39  ARG39       0.1563
     40  C         34.7390   49.4260   24.5980 C.2    39  ARG39       0.2260
     41  O         33.8450   50.0470   24.0530 O.2    39  ARG39      -0.2867
     42  CB        35.6880   51.1590   26.2070 C.3    39  ARG39       0.0307
     43  CG        35.5350   50.6270   27.5870 C.3    39  ARG39       0.0489
     44  CD        34.1580   50.1500   27.8650 C.3    39  ARG39       0.2205
     45  NE        33.8220   50.0080   29.2840 N.pl3  39  ARG39      -0.0865
     46  CZ        32.6420   49.5440   29.6990 C.cat  39  ARG39       0.5346
     47  NH1       31.7180   49.2170   28.8050 N.pl3  39  ARG39       0.1354
     48  NH2       32.3860   49.4130   30.9910 N.pl3  39  ARG39       0.1354
     49  N         31.7210   46.1000   24.9880 N.3    41  LYS41      -0.1245
     50  CA        30.9920   45.2000   25.8780 C.3    41  LYS41       0.1561
     51  C         30.6590   43.9380   25.0760 C.2    41  LYS41       0.2260
     52  O         30.1450   44.0380   23.9580 O.2    41  LYS41      -0.2867
     53  CB        29.7230   45.8980   26.3720 C.3    41  LYS41       0.0271
     54  CG        29.1290   45.3370   27.6350 C.3    41  LYS41       0.0035
     55  CD        29.9380   45.7030   28.8840 C.3    41  LYS41       0.0206
     56  CE        29.3220   45.0300   30.1230 C.3    41  LYS41       0.1093
     57  NZ        30.2150   45.1830   31.2970 N.3    41  LYS41      -0.1314
     58  N         28.4230   40.5150   29.1780 N.3    44  GLU44      -0.1245
     59  CA        28.7210   41.3520   30.3430 C.3    44  GLU44       0.1567
     60  C         30.2150   41.4720   30.7120 C.2    44  GLU44       0.2260
     61  O         30.5250   42.0800   31.7260 O.2    44  GLU44      -0.2867
     62  CB        27.9010   40.8870   31.5610 C.3    44  GLU44       0.0388
     63  CG        26.4370   41.3570   31.5380 C.3    44  GLU44       0.1160
     64  CD        26.2760   42.8760   31.4520 C.2    44  GLU44       0.3649
     65  OE1       26.6340   43.6090   32.4090 O.co2  44  GLU44      -0.2457
     66  OE2       25.7840   43.3330   30.4040 O.co2  44  GLU44      -0.2457
     67  N         35.0920   52.1030   33.3250 N.3    67  ASP67      -0.1239
     68  CA        34.1680   52.8780   32.5320 C.3    67  ASP67       0.1674
     69  C         34.8850   53.6600   31.3860 C.2    67  ASP67       0.2266
     70  O         34.2380   54.0670   30.4220 O.2    67  ASP67      -0.2867
     71  CB        33.2830   53.7540   33.4720 C.3    67  ASP67       0.1410
     72  CG        33.9870   54.9990   34.0390 C.2    67  ASP67       0.3668
     73  OD1       33.8040   55.3160   35.2470 O.co2  67  ASP67      -0.2456
     74  OD2       34.6910   55.7740   33.3710 O.co2  67  ASP67      -0.2456
     75  N         39.7460   54.0050   34.6450 N.3    81  LYS81      -0.1245
     76  CA        38.9910   54.4160   35.8290 C.3    81  LYS81       0.1561
     77  C         37.6340   53.7550   36.0370 C.2    81  LYS81       0.2260
     78  O         37.0130   53.2930   35.0680 O.2    81  LYS81      -0.2867
     79  CB        38.8290   55.9290   35.8620 C.3    81  LYS81       0.0271
     80  CG        37.5650   56.5310   35.1930 C.3    81  LYS81       0.0035
     81  CD        37.8830   57.9410   34.7220 C.3    81  LYS81       0.0206
     82  CE        36.7020   58.8850   34.6070 C.3    81  LYS81       0.1093
     83  NZ        35.4200   58.2500   34.1820 N.3    81  LYS81      -0.1314
     84  N         35.1990   61.7940   38.1240 N.3   106  VAL106     -0.1231
     85  CA        35.8700   62.4150   36.9940 C.3   106  VAL106      0.1692
     86  C         34.9770   62.2240   35.7790 C.2   106  VAL106      0.2593
     87  O         34.7290   61.1050   35.3320 O.2   106  VAL106     -0.2718
     88  CB        37.2920   61.8250   36.7880 C.3   106  VAL106      0.0266
     89  CG1       38.0000   62.4940   35.6000 C.3   106  VAL106      0.0020
     90  CG2       38.1100   61.9880   38.0580 C.3   106  VAL106      0.0020
     91  N         34.4820   63.3390   35.2630 N.am  107  THR107     -0.1939
     92  CA        33.5230   63.3420   34.1730 C.3   107  THR107      0.2028
     93  C         34.2450   63.4280   32.8320 C.2   107  THR107      0.2642
     94  O         33.7190   62.9890   31.7940 O.2   107  THR107     -0.2714
     95  CB        32.5330   64.5210   34.3410 C.3   107  THR107      0.1808
     96  OG1       33.2220   65.7710   34.3630 O.3   107  THR107     -0.2208
     97  CG2       31.8780   64.4930   35.7120 C.3   107  THR107      0.0379
     98  N         35.4550   64.0190   32.8620 N.am  108  PHE108     -0.1973
     99  CA        36.3030   64.1400   31.6760 C.3   108  PHE108      0.1639
    100  C         37.7870   64.0950   32.0550 C.2   108  PHE108      0.2290
    101  O         38.2110   64.6840   33.0470 O.2   108  PHE108     -0.2864
    102  CB        35.9720   65.4260   30.9410 C.3   108  PHE108      0.0560
    103  CG        36.7650   65.6250   29.6820 C.ar  108  PHE108     -0.0200
    104  CD1       36.2520   65.2500   28.4570 C.ar  108  PHE108     -0.0042
    105  CD2       38.0210   66.2110   29.7230 C.ar  108  PHE108     -0.0042
    106  CE1       36.9730   65.4340   27.2980 C.ar  108  PHE108     -0.0003
    107  CE2       38.7400   66.3930   28.5780 C.ar  108  PHE108     -0.0003
    108  CZ        38.2160   65.9990   27.3530 C.ar  108  PHE108     -0.0000
@<TRIPOS>BOND
     1     1     2    1
     2     2     5    1
     3     2     3    1
     4     6     3   am
     5     6     7    1
     6     8     9    2
     7     8     7    1
     8     3     4    2
     9     7    10    1
    10    10    11    1
    11    13    11   am
    12    14    15    1
    13    11    12    2
    14    15    18    1
    15    15    16    1
    16    18    19    1
    17    36    35    1
    18    20    19   ar
    19    20    22   ar
    20    19    21   ar
    21    33    34    2
    22    33    32    1
    23    16    25   am
    24    16    17    2
    25    22    24   ar
    26    35    32    1
    27    35    37    1
    28    25    26    1
    29    52    51    2
    30    38    39    1
    31    41    40    2
    32    31    32    1
    33    31    27   am
    34    21    23   ar
    35    40    39    1
    36    30    29    1
    37    49    50    1
    38    24    23   ar
    39    51    50    1
    40    39    42    1
    41    26    27    1
    42    26    29    1
    43    27    28    2
    44    50    53    1
    45    42    43    1
    46    53    54    1
    47   106   108   ar
    48   106   104   ar
    49   108   107   ar
    50    43    44    1
    51    54    55    1
    52    44    45    1
    53   104   103   ar
    54   107   105   ar
    55    47    46    1
    56    55    56    1
    57    58    59    1
    58    45    46    2
    59   103   105   ar
    60   103   102    1
    61    46    48    1
    62    56    57    1
    63    59    60    1
    64    59    62    1
    65    66    64   ar
    66    70    69    2
    67    60    61    2
    68   102    99    1
    69    69    68    1
    70    64    63    1
    71    64    65   ar
    72    63    62    1
    73    99   100    1
    74    99    98    1
    75    94    93    2
    76   100   101    2
    77    68    67    1
    78    68    71    1
    79    93    98   am
    80    93    92    1
    81    74    72   ar
    82    71    72    1
    83    72    73   ar
    84    92    95    1
    85    92    91    1
    86    83    82    1
    87    95    96    1
    88    95    97    1
    89    82    81    1
    90    75    76    1
    91    81    80    1
    92    78    77    2
    93    80    79    1
    94    91    86   am
    95    87    86    2
    96    89    88    1
    97    86    85    1
    98    76    79    1
    99    76    77    1
   100    88    85    1
   101    88    90    1
   102    85    84    1
