@<TRIPOS>MOLECULE
tmp/1utcB01.pdb
 136 130 0 0 0
SMALL
GASTEIGER

@<TRIPOS>ATOM
      1  N         31.9770   56.2270   19.2150 N.3    24  GLY24      -0.1210
      2  CA        31.4240   57.4830   19.6630 C.3    24  GLY24       0.1956
      3  C         32.3000   58.0370   20.7660 C.2    24  GLY24       0.2612
      4  O         33.1640   57.3250   21.3120 O.2    24  GLY24      -0.2717
      5  N         32.0760   59.3070   21.0800 N.am   25  PHE25      -0.1962
      6  CA        32.8520   60.0460   22.0480 C.3    25  PHE25       0.1771
      7  C         32.9750   59.3420   23.4110 C.2    25  PHE25       0.2620
      8  O         33.9810   59.5350   24.0910 O.2    25  PHE25      -0.2715
      9  CB        32.2070   61.4300   22.2090 C.3    25  PHE25       0.0574
     10  CG        32.8810   62.3320   23.1900 C.ar   25  PHE25      -0.0200
     11  CD1       34.0640   63.0130   22.8550 C.ar   25  PHE25      -0.0042
     12  CD2       32.3090   62.5680   24.4410 C.ar   25  PHE25      -0.0042
     13  CE1       34.6770   63.8880   23.7750 C.ar   25  PHE25      -0.0003
     14  CE2       32.9230   63.4320   25.3620 C.ar   25  PHE25      -0.0003
     15  CZ        34.1130   64.0920   25.0200 C.ar   25  PHE25      -0.0000
     16  N         31.9730   58.5330   23.8150 N.am   26  SER26      -0.1950
     17  CA        31.9960   57.9390   25.1770 C.3    26  SER26       0.1924
     18  C         32.7470   56.6310   25.2870 C.2    26  SER26       0.2314
     19  O         33.0450   56.2200   26.3910 O.2    26  SER26      -0.2863
     20  CB        30.6000   57.8470   25.8430 C.3    26  SER26       0.2116
     21  OG        29.6230   57.3820   24.9550 O.3    26  SER26      -0.2180
     22  N         28.2800   69.9710   28.8220 N.3   150  GLN150     -0.1231
     23  CA        29.0160   68.7560   28.5490 C.3   150  GLN150      0.1698
     24  C         30.4670   69.1690   28.2120 C.2   150  GLN150      0.2592
     25  O         30.6810   69.9750   27.3150 O.2   150  GLN150     -0.2718
     26  CB        28.3710   68.0120   27.3860 C.3   150  GLN150      0.0381
     27  CG        27.9560   66.6200   27.7590 C.3   150  GLN150      0.0905
     28  CD        27.2770   65.8770   26.6450 C.2   150  GLN150      0.2608
     29  OE1       27.9540   65.2200   25.8220 O.2   150  GLN150     -0.2717
     30  NE2       25.9400   65.9340   26.6210 N.am  150  GLN150     -0.0878
     31  N         31.4510   68.6350   28.9440 N.am  151  ILE151     -0.1966
     32  CA        32.8500   68.9940   28.6730 C.3   151  ILE151      0.1727
     33  C         33.3320   68.2760   27.4160 C.2   151  ILE151      0.2616
     34  O         33.1810   67.0580   27.3250 O.2   151  ILE151     -0.2715
     35  CB        33.7930   68.6630   29.8680 C.3   151  ILE151      0.0290
     36  CG1       33.3480   69.4140   31.1290 C.3   151  ILE151      0.0022
     37  CG2       35.2170   69.0430   29.5050 C.3   151  ILE151      0.0023
     38  CD1       33.2940   70.9620   31.0250 C.3   151  ILE151      0.0001
     39  N         33.9420   69.0180   26.4790 N.am  152  ILE152     -0.1977
     40  CA        34.4740   68.3810   25.2530 C.3   152  ILE152      0.1596
     41  C         35.9940   68.4800   25.0450 C.2   152  ILE152      0.2287
     42  O         36.5870   67.6350   24.3780 O.2   152  ILE152     -0.2864
     43  CB        33.7090   68.8250   24.0020 C.3   152  ILE152      0.0276
     44  CG1       33.9120   70.2970   23.7320 C.3   152  ILE152      0.0022
     45  CG2       32.1850   68.5180   24.1620 C.3   152  ILE152      0.0022
     46  CD1       33.4530   70.6560   22.3610 C.3   152  ILE152      0.0001
     47  N         30.0070   72.4940   26.1420 N.3   168  ILE168     -0.1231
     48  CA        28.8470   72.9170   25.3510 C.3   168  ILE168      0.1692
     49  C         27.4700   72.5360   25.9770 C.2   168  ILE168      0.2593
     50  O         27.3470   71.5030   26.6760 O.2   168  ILE168     -0.2718
     51  CB        28.9620   72.4140   23.8480 C.3   168  ILE168      0.0266
     52  CG1       29.1460   70.9130   23.7620 C.3   168  ILE168      0.0019
     53  CG2       30.1080   73.1280   23.1190 C.3   168  ILE168      0.0020
     54  CD1       29.2120   70.3450   22.3480 C.3   168  ILE168      0.0001
     55  N         26.4610   73.3880   25.7090 N.am  169  SER169     -0.1938
     56  CA        25.0750   73.2570   26.2350 C.3   169  SER169      0.2055
     57  C         24.0140   73.8960   25.3320 C.2   169  SER169      0.2642
     58  O         24.3160   74.4230   24.2720 O.2   169  SER169     -0.2714
     59  CB        24.9530   73.9430   27.5880 C.3   169  SER169      0.2130
     60  OG        24.8160   75.3500   27.4290 O.3   169  SER169     -0.2179
     61  N         22.7650   73.8960   25.7910 N.am  170  ALA170     -0.1977
     62  CA        21.6610   74.5130   25.0150 C.3   170  ALA170      0.1597
     63  C         21.0830   75.7220   25.7500 C.2   170  ALA170      0.2287
     64  O         20.9600   75.7000   26.9770 O.2   170  ALA170     -0.2864
     65  CB        20.5850   73.4740   24.6780 C.3   170  ALA170      0.0319
     66  N         23.2200   75.5470   20.1520 N.3   175  VAL175     -0.1245
     67  CA        24.3360   74.9950   20.9250 C.3   175  VAL175      0.1561
     68  C         25.2410   76.1420   21.3540 C.2   175  VAL175      0.2260
     69  O         25.8740   76.8070   20.5130 O.2   175  VAL175     -0.2867
     70  CB        25.1210   73.9910   20.1210 C.3   175  VAL175      0.0252
     71  CG1       26.3550   73.5410   20.8880 C.3   175  VAL175      0.0019
     72  CG2       24.2510   72.8090   19.7960 C.3   175  VAL175      0.0019
     73  N         28.3920   74.0990   13.9520 N.3   258  PHE258     -0.1241
     74  CA        29.2710   74.8950   14.8170 C.3   258  PHE258      0.1605
     75  C         30.6560   74.2320   14.8940 C.2   258  PHE258      0.2264
     76  O         30.8130   73.0360   14.5690 O.2   258  PHE258     -0.2867
     77  CB        28.6520   75.0770   16.2080 C.3   258  PHE258      0.0534
     78  CG        28.3360   73.7760   16.9150 C.ar  258  PHE258     -0.0203
     79  CD1       29.1460   73.3070   17.9390 C.ar  258  PHE258     -0.0042
     80  CD2       27.2220   73.0120   16.5440 C.ar  258  PHE258     -0.0042
     81  CE1       28.8740   72.1010   18.5660 C.ar  258  PHE258     -0.0003
     82  CE2       26.9370   71.8070   17.1970 C.ar  258  PHE258     -0.0003
     83  CZ        27.7650   71.3540   18.2030 C.ar  258  PHE258     -0.0000
     84  N         33.7410   72.2930   16.3140 N.3   260  VAL260     -0.1245
     85  CA        33.9410   71.3030   17.3600 C.3   260  VAL260      0.1561
     86  C         35.4320   70.9850   17.6670 C.2   260  VAL260      0.2260
     87  O         35.7290   70.6190   18.8150 O.2   260  VAL260     -0.2867
     88  CB        33.1710   69.9450   17.1090 C.3   260  VAL260      0.0252
     89  CG1       31.7040   70.1540   17.1310 C.3   260  VAL260      0.0019
     90  CG2       33.5990   69.3060   15.8370 C.3   260  VAL260      0.0019
     91  N         30.9800   70.5750   13.4270 N.3   276  LYS276     -0.1245
     92  CA        30.0800   69.4770   13.8150 C.3   276  LYS276      0.1561
     93  C         29.6230   68.6310   12.6290 C.2   276  LYS276      0.2260
     94  O         29.6410   67.4210   12.7030 O.2   276  LYS276     -0.2867
     95  CB        28.8580   70.0350   14.5540 C.3   276  LYS276      0.0271
     96  CG        27.8090   68.9710   15.0110 C.3   276  LYS276      0.0035
     97  CD        28.2310   68.1400   16.2350 C.3   276  LYS276      0.0206
     98  CE        27.0130   67.3920   16.9030 C.3   276  LYS276      0.1093
     99  NZ        26.4390   66.3420   16.0270 N.3   276  LYS276     -0.1314
    100  N         29.6920   63.4080   12.1290 N.3   300  THR300     -0.1203
    101  CA        30.5220   64.1320   13.1250 C.3   300  THR300      0.1994
    102  C         31.8480   63.4170   13.3890 C.2   300  THR300      0.2618
    103  O         31.8670   62.2050   13.6210 O.2   300  THR300     -0.2717
    104  CB        29.8130   64.2920   14.4680 C.3   300  THR300      0.1784
    105  OG1       28.6970   65.1580   14.3200 O.3   300  THR300     -0.2211
    106  CG2       30.7010   65.0350   15.4730 C.3   300  THR300      0.0376
    107  N         32.9250   64.1910   13.2920 N.am  301  ILE301     -0.1965
    108  CA        34.2920   63.7960   13.6760 C.3   301  ILE301      0.1727
    109  C         34.3910   64.2160   15.1130 C.2   301  ILE301      0.2616
    110  O         34.3870   65.4090   15.4160 O.2   301  ILE301     -0.2715
    111  CB        35.3300   64.5630   12.8370 C.3   301  ILE301      0.0290
    112  CG1       35.2540   64.1340   11.3540 C.3   301  ILE301      0.0022
    113  CG2       36.7680   64.4190   13.4320 C.3   301  ILE301      0.0023
    114  CD1       35.9210   65.1470   10.3690 C.3   301  ILE301      0.0001
    115  N         34.4250   63.2280   15.9960 N.am  302  PHE302     -0.1974
    116  CA        34.1420   63.4530   17.4040 C.3   302  PHE302      0.1639
    117  C         35.4300   63.4020   18.2530 C.2   302  PHE302      0.2290
    118  O         35.4170   63.7950   19.4060 O.2   302  PHE302     -0.2864
    119  CB        33.0660   62.4430   17.9060 C.3   302  PHE302      0.0560
    120  CG        33.5200   61.0310   17.8710 C.ar  302  PHE302     -0.0200
    121  CD1       34.3090   60.5190   18.9130 C.ar  302  PHE302     -0.0042
    122  CD2       33.2390   60.2260   16.7900 C.ar  302  PHE302     -0.0042
    123  CE1       34.7940   59.2060   18.8790 C.ar  302  PHE302     -0.0003
    124  CE2       33.7330   58.9070   16.7510 C.ar  302  PHE302     -0.0003
    125  CZ        34.4930   58.4100   17.8010 C.ar  302  PHE302     -0.0000
    126  N         31.7370   59.2850   13.5700 N.3   318  ARG318     -0.1245
    127  CA        30.6210   58.4710   14.0520 C.3   318  ARG318      0.1563
    128  C         30.3360   57.2250   13.1970 C.2   318  ARG318      0.2260
    129  O         29.6930   56.3040   13.6770 O.2   318  ARG318     -0.2867
    130  CB        29.3590   59.3610   14.1720 C.3   318  ARG318      0.0307
    131  CG        28.9950   59.7660   15.6170 C.3   318  ARG318      0.0489
    132  CD        28.3940   58.5940   16.4170 C.3   318  ARG318      0.2205
    133  NE        28.2120   58.8390   17.8510 N.pl3 318  ARG318     -0.0865
    134  CZ        27.9830   57.8770   18.7680 C.cat 318  ARG318      0.5346
    135  NH1       27.9130   56.5940   18.4070 N.pl3 318  ARG318      0.1354
    136  NH2       27.8250   58.1980   20.0590 N.pl3 318  ARG318      0.1354
@<TRIPOS>BOND
     1   114   112    1
     2   112   111    1
     3   100   101    1
     4    93    94    2
     5    93    92    1
     6   111   113    1
     7   111   108    1
     8   101   102    1
     9   101   104    1
    10   128   129    2
    11   128   127    1
    12   107   102   am
    13   107   108    1
    14   102   103    2
    15    91    92    1
    16   126   127    1
    17   108   109    1
    18    92    95    1
    19    73    74    1
    20   127   130    1
    21   130   131    1
    22   105   104    1
    23   104   106    1
    24    95    96    1
    25    76    75    2
    26    74    75    1
    27    74    77    1
    28    96    97    1
    29   109   110    2
    30   109   115   am
    31   131   132    1
    32    90    88    1
    33   115   116    1
    34    99    98    1
    35    77    78    1
    36    97    98    1
    37    84    85    1
    38   132   133    1
    39    80    78   ar
    40    80    82   ar
    41   124   122   ar
    42   124   125   ar
    43   122   120   ar
    44    78    79   ar
    45    88    89    1
    46    88    85    1
    47    82    83   ar
    48    85    86    1
    49   116   119    1
    50   116   117    1
    51    86    87    2
    52   125   123   ar
    53   133   134    2
    54   120   119    1
    55   120   121   ar
    56    79    81   ar
    57    83    81   ar
    58   117   118    2
    59   135   134    1
    60   134   136    1
    61   123   121   ar
    62     1     2    1
    63     2     3    1
    64    72    70    1
    65    70    71    1
    66    70    67    1
    67    66    67    1
    68    69    68    2
    69     3     5   am
    70     3     4    2
    71    67    68    1
    72     5     6    1
    73     6     9    1
    74     6     7    1
    75     9    10    1
    76    54    52    1
    77    46    44    1
    78    11    10   ar
    79    11    13   ar
    80    53    51    1
    81    10    12   ar
    82     7    16   am
    83     7     8    2
    84    44    43    1
    85    52    51    1
    86    13    15   ar
    87    16    17    1
    88    51    48    1
    89    43    45    1
    90    43    40    1
    91    58    57    2
    92    42    41    2
    93    12    14   ar
    94    65    62    1
    95    21    20    1
    96    62    63    1
    97    62    61    1
    98    15    14   ar
    99    41    40    1
   100    17    18    1
   101    17    20    1
   102    40    39    1
   103    18    19    2
   104    57    61   am
   105    57    56    1
   106    48    49    1
   107    48    47    1
   108    55    49   am
   109    55    56    1
   110    63    64    2
   111    29    28    2
   112    49    50    2
   113    56    59    1
   114    39    33   am
   115    30    28   am
   116    28    27    1
   117    25    24    2
   118    34    33    2
   119    26    27    1
   120    26    23    1
   121    33    32    1
   122    60    59    1
   123    24    23    1
   124    24    31   am
   125    23    22    1
   126    32    31    1
   127    32    35    1
   128    37    35    1
   129    35    36    1
   130    38    36    1
