@<TRIPOS>MOLECULE
tmp/1utjA00.pdb
 105 102 0 0 0
SMALL
GASTEIGER

@<TRIPOS>ATOM
      1  N         12.3360   10.8970   57.8130 N.3    40  HIS40      -0.1241
      2  CA        13.2260    9.7910   58.1780 C.3    40  HIS40       0.1621
      3  C         13.2710    9.5840   59.6980 C.2    40  HIS40       0.2264
      4  O         13.7480    8.5600   60.1630 O.2    40  HIS40      -0.2867
      5  CB        14.6450    9.9140   57.5470 C.3    40  HIS40       0.0745
      6  CG        15.5800   10.8490   58.2620 C.ar   40  HIS40       0.0817
      7  ND1       15.7680   12.1600   57.8740 N.ar   40  HIS40      -0.2268
      8  CD2       16.4120   10.6480   59.3150 C.ar   40  HIS40       0.1154
      9  CE1       16.6730   12.7270   58.6570 C.ar   40  HIS40       0.1986
     10  NE2       17.0790   11.8310   59.5370 N.ar   40  HIS40      -0.2212
     11  N         28.4890   22.9710   60.2820 N.3   170  ASP170     -0.1225
     12  CA        27.4270   22.1870   59.6370 C.3   170  ASP170      0.1805
     13  C         26.5040   21.5420   60.6750 C.2   170  ASP170      0.2598
     14  O         26.7910   21.5660   61.8760 O.2   170  ASP170     -0.2718
     15  CB        28.1340   21.0810   58.8270 C.3   170  ASP170      0.1424
     16  CG        27.2270   20.3390   57.8560 C.2   170  ASP170      0.3668
     17  OD1       27.7270   19.3420   57.2910 O.co2 170  ASP170     -0.2456
     18  OD2       26.0560   20.7200   57.6330 O.co2 170  ASP170     -0.2456
     19  N         25.3580   21.0460   60.2270 N.am  171  SER171     -0.1938
     20  CA        24.4710   20.3140   61.1200 C.3   171  SER171      0.2055
     21  C         25.0280   18.8770   61.0930 C.2   171  SER171      0.2643
     22  O         25.9090   18.5640   60.2840 O.2   171  SER171     -0.2714
     23  CB        23.0230   20.3550   60.6130 C.3   171  SER171      0.2130
     24  OG        22.9570   19.9120   59.2780 O.3   171  SER171     -0.2179
     25  N         24.5190   17.9960   61.9490 N.am  172  CYS172     -0.1953
     26  CA        25.0260   16.6300   62.0020 C.3   172  CYS172      0.1843
     27  C         23.9480   15.6980   62.5640 C.2   172  CYS172      0.2625
     28  O         22.8540   16.1650   62.9070 O.2   172  CYS172     -0.2714
     29  CB        26.2940   16.6150   62.8600 C.3   172  CYS172      0.0997
     30  SG        27.3870   15.1940   62.5830 S.3   172  CYS172     -0.0797
     31  N         24.2210   14.3950   62.6450 N.am  173  GLN173     -0.1977
     32  CA        23.2090   13.4560   63.1680 C.3   173  GLN173      0.1601
     33  C         22.7390   13.8680   64.5580 C.2   173  GLN173      0.2287
     34  O         23.5420   14.2880   65.3930 O.2   173  GLN173     -0.2864
     35  CB        23.7180   12.0050   63.1680 C.3   173  GLN173      0.0394
     36  CG        24.9710   11.7560   63.9780 C.3   173  GLN173      0.0908
     37  CD        25.4150   10.3160   63.8800 C.2   173  GLN173      0.2608
     38  OE1       24.6310    9.4350   63.5060 O.2   173  GLN173     -0.2717
     39  NE2       26.6680   10.0620   64.2180 N.am  173  GLN173     -0.0878
     40  N         18.9530   16.2170   62.9010 N.3   176  SER176     -0.1217
     41  CA        17.9430   15.8040   61.9240 C.3   176  SER176      0.1889
     42  C         16.5170   16.1390   62.3610 C.2   176  SER176      0.2288
     43  O         16.1500   15.9270   63.5210 O.2   176  SER176     -0.2866
     44  CB        18.0670   14.2990   61.6880 C.3   176  SER176      0.2089
     45  OG        19.4300   13.9470   61.5790 O.3   176  SER176     -0.2183
     46  N         16.3450   19.8370   58.7940 N.3   190  VAL190     -0.1231
     47  CA        17.6260   19.1250   58.6940 C.3   190  VAL190      0.1692
     48  C         17.3500   17.7260   58.1200 C.2   190  VAL190      0.2593
     49  O         16.5820   16.9460   58.6970 O.2   190  VAL190     -0.2718
     50  CB        18.3410   19.0380   60.0750 C.3   190  VAL190      0.0266
     51  CG1       19.6940   18.3280   59.9380 C.3   190  VAL190      0.0020
     52  CG2       18.5230   20.4430   60.6560 C.3   190  VAL190      0.0020
     53  N         17.9870   17.4080   56.9950 N.am  191  SER191     -0.1938
     54  CA        17.7250   16.1360   56.3330 C.3   191  SER191      0.2055
     55  C         18.8970   15.1760   56.1860 C.2   191  SER191      0.2643
     56  O         18.8920   14.1240   56.8300 O.2   191  SER191     -0.2714
     57  CB        17.0400   16.3860   54.9790 C.3   191  SER191      0.2130
     58  OG        16.6660   15.1710   54.3660 O.3   191  SER191     -0.2179
     59  N         19.9040   15.5190   55.3800 N.am  192  TRP192     -0.1959
     60  CA        21.0420   14.6090   55.1860 C.3   192  TRP192      0.1771
     61  C         22.3100   15.2970   54.6900 C.2   192  TRP192      0.2620
     62  O         22.3420   16.5060   54.5200 O.2   192  TRP192     -0.2715
     63  CB        20.6610   13.4580   54.2210 C.3   192  TRP192      0.0590
     64  CG        20.2890   13.8830   52.8170 C.ar  192  TRP192      0.0006
     65  CD1       19.0520   14.2850   52.3690 C.ar  192  TRP192      0.0946
     66  CD2       21.1620   13.9230   51.6730 C.ar  192  TRP192      0.0152
     67  NE1       19.1070   14.5660   51.0140 N.ar  192  TRP192     -0.2442
     68  CE2       20.3850   14.3540   50.5650 C.ar  192  TRP192      0.0810
     69  CE3       22.5270   13.6360   51.4750 C.ar  192  TRP192      0.0012
     70  CZ2       20.9300   14.5040   49.2840 C.ar  192  TRP192      0.0191
     71  CZ3       23.0700   13.7880   50.1850 C.ar  192  TRP192      0.0001
     72  CH2       22.2660   14.2180   49.1130 C.ar  192  TRP192      0.0015
     73  N         23.3560   14.5030   54.4840 N.am  193  GLY193     -0.1954
     74  CA        24.6200   15.0100   53.9730 C.3   193  GLY193      0.1869
     75  C         25.6700   13.9130   54.0390 C.2   193  GLY193      0.2309
     76  O         25.3740   12.7980   54.4730 O.2   193  GLY193     -0.2863
     77  N         28.8050   12.9580   55.8320 N.3   195  GLY195     -0.1210
     78  CA        29.5810   13.3540   56.9970 C.3   195  GLY195      0.1956
     79  C         29.0380   14.6440   57.5830 C.2   195  GLY195      0.2612
     80  O         27.8860   15.0020   57.3480 O.2   195  GLY195     -0.2717
     81  N         29.8690   15.3450   58.3360 N.am  196  CYS196     -0.1970
     82  CA        29.4750   16.6130   58.9370 C.3   196  CYS196      0.1712
     83  C         30.6550   17.5640   58.9150 C.2   196  CYS196      0.2296
     84  O         31.7440   17.2290   59.3800 O.2   196  CYS196     -0.2864
     85  CB        29.0390   16.4140   60.3890 C.3   196  CYS196      0.0983
     86  SG        27.6990   15.2170   60.5800 S.3   196  CYS196     -0.0798
     87  N         31.1160   19.0120   51.0680 N.3   201  ASN201     -0.1240
     88  CA        29.9160   18.2430   51.4310 C.3   201  ASN201      0.1653
     89  C         28.9810   19.0390   52.3650 C.2   201  ASN201      0.2266
     90  O         28.9120   18.7550   53.5710 O.2   201  ASN201     -0.2867
     91  CB        30.3150   16.9460   52.1550 C.3   201  ASN201      0.1155
     92  CG        31.0560   15.9670   51.2680 C.2   201  ASN201      0.2627
     93  OD1       32.0850   15.4220   51.6590 O.2   201  ASN201     -0.2716
     94  ND2       30.5050   15.6830   50.1160 N.am  201  ASN201     -0.0877
     95  N         25.3780   20.5940   54.0690 N.3   203  GLY203     -0.1210
     96  CA        24.1770   19.9300   54.5440 C.3   203  GLY203      0.1956
     97  C         23.0630   20.0600   53.5210 C.2   203  GLY203      0.2611
     98  O         23.0500   21.0150   52.7350 O.2   203  GLY203     -0.2717
     99  N         22.1580   19.0840   53.5060 N.am  204  VAL204     -0.1979
    100  CA        21.0180   19.0840   52.5980 C.3   204  VAL204      0.1595
    101  C         19.7860   19.1740   53.4770 C.2   204  VAL204      0.2287
    102  O         19.6560   18.4410   54.4610 O.2   204  VAL204     -0.2864
    103  CB        20.9440   17.8120   51.7330 C.3   204  VAL204      0.0276
    104  CG1       19.7720   17.9310   50.7330 C.3   204  VAL204      0.0022
    105  CG2       22.2640   17.6230   50.9720 C.3   204  VAL204      0.0022
@<TRIPOS>BOND
     1    72    70   ar
     2    72    71   ar
     3    70    68   ar
     4    94    92   am
     5    71    69   ar
     6    68    67   ar
     7    68    66   ar
     8   104   103    1
     9   105   103    1
    10    67    65   ar
    11    87    88    1
    12    92    93    2
    13    92    91    1
    14    88    91    1
    15    88    89    1
    16    69    66   ar
    17    66    64   ar
    18   103   100    1
    19    89    90    2
    20    65    64   ar
    21   100   101    1
    22   100    99    1
    23    98    97    2
    24    64    63    1
    25   101   102    2
    26    99    97   am
    27    97    96    1
    28    74    75    1
    29    74    73    1
    30    75    76    2
    31    95    96    1
    32    63    60    1
    33    58    57    1
    34    73    61   am
    35    62    61    2
    36    61    60    1
    37    57    54    1
    38    60    59    1
    39    59    55   am
    40    77    78    1
    41    55    54    1
    42    55    56    2
    43    54    53    1
    44    53    48   am
    45    78    79    1
    46    17    16   ar
    47    80    79    2
    48     5     2    1
    49     5     6    1
    50    79    81   am
    51    18    16   ar
    52     1     2    1
    53    16    15    1
    54     7     6   ar
    55     7     9   ar
    56    48    47    1
    57    48    49    2
    58     2     3    1
    59     6     8   ar
    60    81    82    1
    61     9    10   ar
    62    47    46    1
    63    47    50    1
    64    15    12    1
    65    83    82    1
    66    83    84    2
    67    82    85    1
    68    24    23    1
    69     8    10   ar
    70    12    11    1
    71    12    13    1
    72     3     4    2
    73    51    50    1
    74    50    52    1
    75    19    13   am
    76    19    20    1
    77    22    21    2
    78    85    86    1
    79    86    30    1
    80    23    20    1
    81    13    14    2
    82    21    20    1
    83    21    25   am
    84    45    44    1
    85    44    41    1
    86    41    42    1
    87    41    40    1
    88    25    26    1
    89    26    27    1
    90    26    29    1
    91    42    43    2
    92    27    31   am
    93    27    28    2
    94    30    29    1
    95    31    32    1
    96    35    32    1
    97    35    36    1
    98    32    33    1
    99    38    37    2
   100    37    36    1
   101    37    39   am
   102    33    34    2
