@<TRIPOS>MOLECULE
tmp/1utlA00.pdb
 105 102 0 0 0
SMALL
GASTEIGER

@<TRIPOS>ATOM
      1  N         12.4460   11.0030   57.8690 N.3    40  HIS40      -0.1241
      2  CA        13.3680    9.9290   58.2360 C.3    40  HIS40       0.1621
      3  C         13.4140    9.7570   59.7550 C.2    40  HIS40       0.2264
      4  O         13.9870    8.7940   60.2490 O.2    40  HIS40      -0.2867
      5  CB        14.7720   10.1090   57.6110 C.3    40  HIS40       0.0745
      6  CG        15.6660   11.0700   58.3350 C.ar   40  HIS40       0.0817
      7  ND1       15.8830   12.3590   57.8970 N.ar   40  HIS40      -0.2268
      8  CD2       16.4380   10.9140   59.4350 C.ar   40  HIS40       0.1154
      9  CE1       16.7520   12.9570   58.6950 C.ar   40  HIS40       0.1986
     10  NE2       17.1040   12.1000   59.6350 N.ar   40  HIS40      -0.2212
     11  N         15.7850    9.4950   50.4520 N.3    81  ILE81      -0.1245
     12  CA        15.4510   10.5040   51.4570 C.3    81  ILE81       0.1561
     13  C         14.7950   11.7440   50.8300 C.2    81  ILE81       0.2260
     14  O         15.0240   12.8760   51.2620 O.2    81  ILE81      -0.2867
     15  CB        16.7070   10.9290   52.2710 C.3    81  ILE81       0.0252
     16  CG1       17.6330    9.7280   52.4840 C.3    81  ILE81       0.0019
     17  CG2       16.2880   11.4810   53.6380 C.3    81  ILE81       0.0019
     18  CD1       18.9590   10.0840   53.1220 C.3    81  ILE81       0.0001
     19  N         28.3950   23.0120   60.3460 N.3   170  ASP170     -0.1225
     20  CA        27.3190   22.2320   59.7370 C.3   170  ASP170      0.1805
     21  C         26.3850   21.6290   60.7900 C.2   170  ASP170      0.2598
     22  O         26.6550   21.6910   61.9920 O.2   170  ASP170     -0.2718
     23  CB        27.9940   21.0810   58.9690 C.3   170  ASP170      0.1424
     24  CG        27.1030   20.4120   57.9300 C.2   170  ASP170      0.3668
     25  OD1       27.5980   19.4320   57.3270 O.co2 170  ASP170     -0.2456
     26  OD2       25.9560   20.8400   57.6850 O.co2 170  ASP170     -0.2456
     27  N         25.2580   21.0950   60.3320 N.am  171  SER171     -0.1938
     28  CA        24.3400   20.3870   61.2180 C.3   171  SER171      0.2055
     29  C         24.9010   18.9500   61.1950 C.2   171  SER171      0.2643
     30  O         25.7370   18.6200   60.3440 O.2   171  SER171     -0.2714
     31  CB        22.9090   20.4510   60.6680 C.3   171  SER171      0.2130
     32  OG        22.8510   19.9530   59.3560 O.3   171  SER171     -0.2179
     33  N         24.4520   18.0820   62.0930 N.am  172  CYS172     -0.1953
     34  CA        24.9910   16.7290   62.1370 C.3   172  CYS172      0.1843
     35  C         23.9330   15.7830   62.7020 C.2   172  CYS172      0.2625
     36  O         22.8490   16.2420   63.0780 O.2   172  CYS172     -0.2714
     37  CB        26.2730   16.7340   62.9880 C.3   172  CYS172      0.0997
     38  SG        27.3910   15.3160   62.7260 S.3   172  CYS172     -0.0797
     39  N         24.2200   14.4790   62.7550 N.am  173  GLN173     -0.1977
     40  CA        23.2350   13.5170   63.2790 C.3   173  GLN173      0.1601
     41  C         22.7420   13.9480   64.6560 C.2   173  GLN173      0.2287
     42  O         23.5200   14.4280   65.4850 O.2   173  GLN173     -0.2864
     43  CB        23.7910   12.0800   63.2940 C.3   173  GLN173      0.0394
     44  CG        25.0310   11.8420   64.1610 C.3   173  GLN173      0.0908
     45  CD        25.5740   10.4230   64.0150 C.2   173  GLN173      0.2608
     46  OE1       26.7300   10.1380   64.3550 O.2   173  GLN173     -0.2717
     47  NE2       24.7410    9.5270   63.4980 N.am  173  GLN173     -0.0878
     48  N         18.8510   16.2200   62.9890 N.3   176  SER176     -0.1217
     49  CA        17.8410   15.8220   61.9990 C.3   176  SER176      0.1889
     50  C         16.4340   16.2610   62.3950 C.2   176  SER176      0.2288
     51  O         16.0400   16.0900   63.5530 O.2   176  SER176     -0.2866
     52  CB        17.8340   14.3010   61.8340 C.3   176  SER176      0.2089
     53  OG        19.0880   13.8200   61.3920 O.3   176  SER176     -0.2183
     54  N         16.3220   19.9750   58.8260 N.3   190  VAL190     -0.1231
     55  CA        17.5880   19.2250   58.7240 C.3   190  VAL190      0.1692
     56  C         17.3160   17.8300   58.1460 C.2   190  VAL190      0.2593
     57  O         16.5990   17.0290   58.7450 O.2   190  VAL190     -0.2718
     58  CB        18.3020   19.1090   60.1000 C.3   190  VAL190      0.0266
     59  CG1       19.5960   18.3060   59.9690 C.3   190  VAL190      0.0020
     60  CG2       18.5730   20.5120   60.6660 C.3   190  VAL190      0.0020
     61  N         17.9300   17.5360   57.0020 N.am  191  SER191     -0.1938
     62  CA        17.6900   16.2680   56.3240 C.3   191  SER191      0.2055
     63  C         18.8390   15.2590   56.2060 C.2   191  SER191      0.2643
     64  O         18.8060   14.2100   56.8650 O.2   191  SER191     -0.2714
     65  CB        17.0840   16.5480   54.9450 C.3   191  SER191      0.2130
     66  OG        16.7780   15.3380   54.2890 O.3   191  SER191     -0.2179
     67  N         19.7980   15.5080   55.3170 N.am  192  TRP192     -0.1959
     68  CA        20.9260   14.5880   55.1250 C.3   192  TRP192      0.1771
     69  C         22.1890   15.3140   54.6740 C.2   192  TRP192      0.2620
     70  O         22.1790   16.5250   54.4900 O.2   192  TRP192     -0.2715
     71  CB        20.5800   13.4640   54.1240 C.3   192  TRP192      0.0590
     72  CG        20.2230   13.9080   52.7120 C.ar  192  TRP192      0.0006
     73  CD1       18.9790   14.2390   52.2450 C.ar  192  TRP192      0.0946
     74  CD2       21.1120   14.0120   51.5860 C.ar  192  TRP192      0.0152
     75  NE1       19.0400   14.5390   50.8990 N.ar  192  TRP192     -0.2442
     76  CE2       20.3340   14.4040   50.4700 C.ar  192  TRP192      0.0810
     77  CE3       22.4910   13.8090   51.4130 C.ar  192  TRP192      0.0012
     78  CZ2       20.8920   14.5980   49.1910 C.ar  192  TRP192      0.0191
     79  CZ3       23.0480   14.0040   50.1390 C.ar  192  TRP192      0.0001
     80  CH2       22.2450   14.3930   49.0490 C.ar  192  TRP192      0.0015
     81  N         23.2770   14.5600   54.5440 N.am  193  GLY193     -0.1954
     82  CA        24.5510   15.1030   54.0900 C.3   193  GLY193      0.1869
     83  C         25.6060   14.0100   54.1610 C.2   193  GLY193      0.2309
     84  O         25.3170   12.8990   54.6140 O.2   193  GLY193     -0.2863
     85  N         28.6390   13.0200   55.9430 N.3   195  GLY195     -0.1210
     86  CA        29.3730   13.3890   57.1390 C.3   195  GLY195      0.1956
     87  C         28.8720   14.7120   57.6880 C.2   195  GLY195      0.2612
     88  O         27.7410   15.1260   57.4170 O.2   195  GLY195     -0.2717
     89  N         29.7110   15.3780   58.4660 N.am  196  CYS196     -0.1970
     90  CA        29.3480   16.6700   59.0150 C.3   196  CYS196      0.1712
     91  C         30.5430   17.6020   58.9640 C.2   196  CYS196      0.2296
     92  O         31.6400   17.2380   59.3890 O.2   196  CYS196     -0.2864
     93  CB        28.9030   16.5420   60.4630 C.3   196  CYS196      0.0983
     94  SG        27.6510   15.2740   60.7070 S.3   196  CYS196     -0.0798
     95  N         25.3620   20.7090   54.1600 N.3   203  GLY203     -0.1210
     96  CA        24.1690   20.0150   54.6130 C.3   203  GLY203      0.1956
     97  C         23.0060   20.1590   53.6310 C.2   203  GLY203      0.2611
     98  O         22.9060   21.1780   52.9190 O.2   203  GLY203     -0.2717
     99  N         22.1490   19.1350   53.5710 N.am  204  VAL204     -0.1979
    100  CA        20.9700   19.1500   52.7030 C.3   204  VAL204      0.1595
    101  C         19.7380   19.2900   53.6010 C.2   204  VAL204      0.2287
    102  O         19.6580   18.6740   54.6770 O.2   204  VAL204     -0.2864
    103  CB        20.8710   17.9030   51.8280 C.3   204  VAL204      0.0276
    104  CG1       19.6620   18.0210   50.8960 C.3   204  VAL204      0.0022
    105  CG2       22.1600   17.7510   51.0070 C.3   204  VAL204      0.0022
@<TRIPOS>BOND
     1    80    78   ar
     2    80    79   ar
     3    78    76   ar
     4    79    77   ar
     5    11    12    1
     6    76    75   ar
     7    76    74   ar
     8    13    14    2
     9    13    12    1
    10   104   103    1
    11    75    73   ar
    12   105   103    1
    13    77    74   ar
    14    12    15    1
    15    74    72   ar
    16   103   100    1
    17    73    72   ar
    18    15    16    1
    19    15    17    1
    20    16    18    1
    21   100    99    1
    22   100   101    1
    23    72    71    1
    24    98    97    2
    25    99    97   am
    26   101   102    2
    27    97    96    1
    28    82    83    1
    29    82    81    1
    30    71    68    1
    31    95    96    1
    32    83    84    2
    33    66    65    1
    34    70    69    2
    35    81    69   am
    36    69    68    1
    37    65    62    1
    38    68    67    1
    39    67    63   am
    40    85    86    1
    41    63    62    1
    42    63    64    2
    43    62    61    1
    44    61    56   am
    45    86    87    1
    46    25    24   ar
    47    88    87    2
    48     5     2    1
    49     5     6    1
    50    26    24   ar
    51    87    89   am
    52     1     2    1
    53     7     6   ar
    54     7     9   ar
    55    24    23    1
    56    56    55    1
    57    56    57    2
    58     2     3    1
    59     6     8   ar
    60    89    90    1
    61     9    10   ar
    62    55    54    1
    63    55    58    1
    64    91    90    1
    65    91    92    2
    66    23    20    1
    67    90    93    1
    68    32    31    1
    69     8    10   ar
    70    20    19    1
    71    20    21    1
    72     3     4    2
    73    59    58    1
    74    58    60    1
    75    27    21   am
    76    27    28    1
    77    30    29    2
    78    93    94    1
    79    31    28    1
    80    94    38    1
    81    21    22    2
    82    29    28    1
    83    29    33   am
    84    53    52    1
    85    52    49    1
    86    49    50    1
    87    49    48    1
    88    33    34    1
    89    34    35    1
    90    34    37    1
    91    50    51    2
    92    35    39   am
    93    35    36    2
    94    38    37    1
    95    39    40    1
    96    40    43    1
    97    40    41    1
    98    43    44    1
    99    47    45   am
   100    45    44    1
   101    45    46    2
   102    41    42    2
