@<TRIPOS>MOLECULE
tmp/1utlA01.pdb
 100 98 0 0 0
SMALL
GASTEIGER

@<TRIPOS>ATOM
      1  N          9.8890   31.1980   48.8590 N.3   109  CYS109     -0.1221
      2  CA        11.1920   30.5340   48.9380 C.3   109  CYS109      0.1808
      3  C         12.3180   31.5560   49.0460 C.2   109  CYS109      0.2601
      4  O         12.3870   32.4990   48.2520 O.2   109  CYS109     -0.2717
      5  CB        11.3950   29.6580   47.7100 C.3   109  CYS109      0.0970
      6  SG        10.1240   28.3740   47.5850 S.3   109  CYS109     -0.0800
      7  N         13.1920   31.3690   50.0320 N.am  110  ALA110     -0.1966
      8  CA        14.3050   32.2850   50.2630 C.3   110  ALA110      0.1713
      9  C         15.3550   32.1460   49.1640 C.2   110  ALA110      0.2458
     10  O         15.7000   31.0400   48.7670 O.2   110  ALA110     -0.2730
     11  CB        14.9330   32.0180   51.6330 C.3   110  ALA110      0.0333
     12  N         15.8620   33.2690   48.6460 N.am  111  PRO111     -0.2716
     13  CA        16.8730   33.1530   47.5930 C.3   111  PRO111      0.1536
     14  C         18.2390   32.7240   48.1400 C.2   111  PRO111      0.2598
     15  O         18.5030   32.8040   49.3420 O.2   111  PRO111     -0.2715
     16  CB        16.9110   34.5640   47.0030 C.3   111  PRO111      0.0310
     17  CG        16.5950   35.4300   48.1670 C.3   111  PRO111      0.0237
     18  CD        15.4760   34.6740   48.8630 C.3   111  PRO111      0.0939
     19  N         19.1000   32.2510   47.2470 N.am  112  ALA112     -0.1978
     20  CA        20.4370   31.8240   47.6300 C.3   112  ALA112      0.1597
     21  C         21.1570   33.0050   48.2640 C.2   112  ALA112      0.2287
     22  O         20.9660   34.1560   47.8640 O.2   112  ALA112     -0.2864
     23  CB        21.2090   31.3320   46.3960 C.3   112  ALA112      0.0319
     24  N         22.0850   30.0720   52.5530 N.3   141  ILE141     -0.1231
     25  CA        21.4960   29.1290   51.6180 C.3   141  ILE141      0.1692
     26  C         22.3770   29.1260   50.3610 C.2   141  ILE141      0.2592
     27  O         22.8110   30.1810   49.8970 O.2   141  ILE141     -0.2718
     28  CB        20.0500   29.5420   51.2620 C.3   141  ILE141      0.0266
     29  CG1       19.1510   29.3590   52.4840 C.3   141  ILE141      0.0019
     30  CG2       19.5290   28.7140   50.0990 C.3   141  ILE141      0.0020
     31  CD1       17.7280   29.7940   52.2610 C.3   141  ILE141      0.0001
     32  N         22.6960   27.9410   49.8550 N.am  142  LEU142     -0.1966
     33  CA        23.5160   27.8310   48.6530 C.3   142  LEU142      0.1728
     34  C         22.6350   27.7500   47.4110 C.2   142  LEU142      0.2617
     35  O         21.4690   27.3520   47.4790 O.2   142  LEU142     -0.2715
     36  CB        24.4040   26.5810   48.6990 C.3   142  LEU142      0.0311
     37  CG        25.3020   26.3200   49.9080 C.3   142  LEU142      0.0022
     38  CD1       26.2190   25.1590   49.5780 C.3   142  LEU142      0.0001
     39  CD2       26.1070   27.5430   50.2790 C.3   142  LEU142      0.0001
     40  N         23.2120   28.0960   46.2700 N.am  143  SER143     -0.1936
     41  CA        22.4990   28.0280   45.0090 C.3   143  SER143      0.2055
     42  C         22.2970   26.5600   44.6160 C.2   143  SER143      0.2643
     43  O         23.0000   25.6610   45.0910 O.2   143  SER143     -0.2714
     44  CB        23.3000   28.7460   43.9150 C.3   143  SER143      0.2130
     45  OG        24.4800   28.0270   43.5860 O.3   143  SER143     -0.2179
     46  N         21.3640   26.3230   43.7090 N.am  144  TYR144     -0.1973
     47  CA        21.1080   24.9760   43.2420 C.3   144  TYR144      0.1639
     48  C         22.3830   24.4640   42.5690 C.2   144  TYR144      0.2290
     49  O         22.7960   23.3400   42.8100 O.2   144  TYR144     -0.2864
     50  CB        19.9380   24.9590   42.2590 C.3   144  TYR144      0.0560
     51  CG        19.8010   23.6510   41.5160 C.ar  144  TYR144     -0.0198
     52  CD1       19.9810   23.5960   40.1300 C.ar  144  TYR144     -0.0009
     53  CD2       19.5060   22.4650   42.1950 C.ar  144  TYR144     -0.0009
     54  CE1       19.8720   22.3920   39.4360 C.ar  144  TYR144      0.0417
     55  CE2       19.3960   21.2530   41.5080 C.ar  144  TYR144      0.0417
     56  CZ        19.5820   21.2320   40.1270 C.ar  144  TYR144      0.1957
     57  OH        19.4790   20.0480   39.4420 O.3   144  TYR144     -0.2866
     58  N         14.7610   19.5920   47.8500 N.3   159  MET159     -0.1230
     59  CA        15.9750   19.7320   48.6510 C.3   159  MET159      0.1702
     60  C         16.7640   20.9840   48.3210 C.2   159  MET159      0.2592
     61  O         16.7220   21.4760   47.1940 O.2   159  MET159     -0.2718
     62  CB        16.9140   18.5530   48.3740 C.3   159  MET159      0.0401
     63  CG        16.3330   17.1730   48.5890 C.3   159  MET159      0.0596
     64  SD        17.4770   15.9490   47.9360 S.3   159  MET159     -0.1393
     65  CE        16.4640   14.4410   48.0070 C.3   159  MET159      0.0692
     66  N         17.4890   21.4960   49.3100 N.am  160  PHE160     -0.1976
     67  CA        18.3650   22.6270   49.0730 C.3   160  PHE160      0.1639
     68  C         19.5520   22.4610   50.0030 C.2   160  PHE160      0.2290
     69  O         19.4790   21.7030   50.9790 O.2   160  PHE160     -0.2864
     70  CB        17.6720   23.9870   49.2430 C.3   160  PHE160      0.0560
     71  CG        17.3870   24.3690   50.6610 C.ar  160  PHE160     -0.0200
     72  CD1       16.1690   24.0370   51.2530 C.ar  160  PHE160     -0.0042
     73  CD2       18.3200   25.0960   51.4000 C.ar  160  PHE160     -0.0042
     74  CE1       15.8790   24.4240   52.5530 C.ar  160  PHE160     -0.0003
     75  CE2       18.0390   25.4850   52.7070 C.ar  160  PHE160     -0.0003
     76  CZ        16.8120   25.1490   53.2860 C.ar  160  PHE160     -0.0000
     77  N         12.4110   27.9130   56.7350 N.3   187  GLN187     -0.1245
     78  CA        12.7110   27.5920   55.3380 C.3   187  GLN187      0.1566
     79  C         13.1860   26.1570   55.1410 C.2   187  GLN187      0.2260
     80  O         13.0160   25.5830   54.0560 O.2   187  GLN187     -0.2867
     81  CB        13.7440   28.5610   54.7390 C.3   187  GLN187      0.0367
     82  CG        13.2650   30.0030   54.5300 C.3   187  GLN187      0.0905
     83  CD        12.3820   30.2170   53.2890 C.2   187  GLN187      0.2608
     84  OE1       11.6630   31.2140   53.2000 O.2   187  GLN187     -0.2717
     85  NE2       12.4680   29.3240   52.3220 N.am  187  GLN187     -0.0878
     86  N         13.0720   21.4600   51.5190 N.3   207  LYS207     -0.1245
     87  CA        12.6250   22.7790   51.0720 C.3   207  LYS207      0.1561
     88  C         11.1650   23.0300   51.4740 C.2   207  LYS207      0.2260
     89  O         10.2460   22.8240   50.6810 O.2   207  LYS207     -0.2867
     90  CB        12.7930   22.8560   49.5500 C.3   207  LYS207      0.0271
     91  CG        12.8020   24.2530   48.9710 C.3   207  LYS207      0.0035
     92  CD        12.9150   24.1820   47.4600 C.3   207  LYS207      0.0206
     93  CE        14.2710   23.6520   47.0120 C.3   207  LYS207      0.1093
     94  NZ        14.3250   23.5100   45.5180 N.3   207  LYS207     -0.1314
     95  N          9.2250   25.6400   51.7410 N.3   209  CYS209     -0.1235
     96  CA         8.4250   26.5520   50.9300 C.3   209  CYS209      0.1677
     97  C          7.6240   25.9020   49.7870 C.2   209  CYS209      0.2270
     98  O          6.6600   26.5000   49.2900 O.2   209  CYS209     -0.2867
     99  CB         9.2990   27.7060   50.4220 C.3   209  CYS209      0.0956
    100  SG        10.5270   27.1950   49.1830 S.3   209  CYS209     -0.0801
@<TRIPOS>BOND
     1    54    56   ar
     2    54    52   ar
     3    57    56    1
     4    56    55   ar
     5    52    51   ar
     6    55    53   ar
     7    51    53   ar
     8    51    50    1
     9    50    47    1
    10    48    49    2
    11    48    47    1
    12    47    46    1
    13    45    44    1
    14    46    42   am
    15    44    41    1
    16    42    41    1
    17    42    43    2
    18    41    40    1
    19    94    93    1
    20    40    34   am
    21    23    20    1
    22    16    13    1
    23    16    17    1
    24    93    92    1
    25    61    60    2
    26    19    20    1
    27    19    14   am
    28    34    35    2
    29    34    33    1
    30    92    91    1
    31     6     5    1
    32     6   100    1
    33    13    14    1
    34    13    12    1
    35    20    21    1
    36     5     2    1
    37    58    59    1
    38    22    21    2
    39    64    65    1
    40    64    63    1
    41    14    15    2
    42    17    18    1
    43     4     3    2
    44    60    59    1
    45    60    66   am
    46    62    63    1
    47    62    59    1
    48    12    18    1
    49    12     9   am
    50    33    36    1
    51    33    32    1
    52    36    37    1
    53    10     9    2
    54     1     2    1
    55     2     3    1
    56    91    90    1
    57     3     7   am
    58    67    70    1
    59    67    66    1
    60    67    68    1
    61     9     8    1
    62   100    99    1
    63    70    71    1
    64    98    97    2
    65    90    87    1
    66    38    37    1
    67    97    96    1
    68    32    26   am
    69    27    26    2
    70    37    39    1
    71    68    69    2
    72     7     8    1
    73    30    28    1
    74     8    11    1
    75    26    25    1
    76    99    96    1
    77    71    72   ar
    78    71    73   ar
    79    89    88    2
    80    96    95    1
    81    87    88    1
    82    87    86    1
    83    72    74   ar
    84    28    25    1
    85    28    29    1
    86    73    75   ar
    87    25    24    1
    88    31    29    1
    89    85    83   am
    90    74    76   ar
    91    75    76   ar
    92    84    83    2
    93    83    82    1
    94    80    79    2
    95    82    81    1
    96    81    78    1
    97    79    78    1
    98    78    77    1
