@<TRIPOS>MOLECULE
tmp/1utmA00.pdb
 109 108 0 0 0
SMALL
GASTEIGER

@<TRIPOS>ATOM
      1  N         83.7460   73.2530  -18.9700 N.3    40  HIS40      -0.1241
      2  CA        84.6620   73.1760  -20.1040 C.3    40  HIS40       0.1621
      3  C         85.4410   71.8540  -20.1850 C.2    40  HIS40       0.2264
      4  O         86.1330   71.6070  -21.1690 O.2    40  HIS40      -0.2867
      5  CB        85.5760   74.4350  -20.2130 C.3    40  HIS40       0.0745
      6  CG        86.8100   74.4090  -19.3530 C.ar   40  HIS40       0.0817
      7  ND1       86.9230   75.1360  -18.1840 N.ar   40  HIS40      -0.2268
      8  CD2       88.0130   73.8120  -19.5340 C.ar   40  HIS40       0.1154
      9  CE1       88.1370   74.9890  -17.6840 C.ar   40  HIS40       0.1986
     10  NE2       88.8180   74.1920  -18.4860 N.ar   40  HIS40      -0.2212
     11  N        100.3020   80.5310   -9.4860 N.3   170  ASP170     -0.1225
     12  CA        98.9910   80.4350  -10.1480 C.3   170  ASP170      0.1805
     13  C         98.6600   78.9700  -10.4910 C.2   170  ASP170      0.2598
     14  O         99.5160   78.0820  -10.3750 O.2   170  ASP170     -0.2718
     15  CB        99.1060   81.2380  -11.4730 C.3   170  ASP170      0.1424
     16  CG        97.7540   81.6190  -12.1090 C.2   170  ASP170      0.3668
     17  OD1       96.6640   81.3680  -11.5400 O.co2 170  ASP170     -0.2456
     18  OD2       97.7970   82.2030  -13.2210 O.co2 170  ASP170     -0.2456
     19  N         97.4040   78.7090  -10.8470 N.am  171  SER171     -0.1938
     20  CA        96.9870   77.3810  -11.3160 C.3   171  SER171      0.2055
     21  C         97.2850   77.4210  -12.8270 C.2   171  SER171      0.2643
     22  O         97.4620   78.5120  -13.3880 O.2   171  SER171     -0.2714
     23  CB        95.4890   77.1500  -11.0520 C.3   171  SER171      0.2130
     24  OG        94.6920   78.2330  -11.5110 O.3   171  SER171     -0.2179
     25  N         97.3170   76.2750  -13.5030 N.am  172  CYS172     -0.1953
     26  CA        97.6390   76.2780  -14.9330 C.3   172  CYS172      0.1843
     27  C         96.8920   75.1720  -15.6900 C.2   172  CYS172      0.2625
     28  O         95.9600   74.5560  -15.1500 O.2   172  CYS172     -0.2714
     29  CB        99.1760   76.1620  -15.1090 C.3   172  CYS172      0.0997
     30  SG        99.8990   76.6600  -16.7230 S.3   172  CYS172     -0.0797
     31  N         97.2620   74.9520  -16.9520 N.am  173  GLN173     -0.1977
     32  CA        96.6320   73.9140  -17.7720 C.3   173  GLN173      0.1601
     33  C         96.8290   72.5360  -17.1090 C.2   173  GLN173      0.2287
     34  O         97.9560   72.1650  -16.7170 O.2   173  GLN173     -0.2864
     35  CB        97.2220   73.9190  -19.1940 C.3   173  GLN173      0.0394
     36  CG        96.6140   72.8840  -20.1380 C.3   173  GLN173      0.0908
     37  CD        95.1190   73.0680  -20.3380 C.2   173  GLN173      0.2608
     38  OE1       94.3310   72.9040  -19.4050 O.2   173  GLN173     -0.2717
     39  NE2       94.7220   73.4030  -21.5580 N.am  173  GLN173     -0.0878
     40  N         92.4870   72.5320  -14.4200 N.3   176  SER176     -0.1217
     41  CA        91.0720   72.8310  -14.7250 C.3   176  SER176      0.1889
     42  C         90.0820   71.8930  -14.0380 C.2   176  SER176      0.2288
     43  O         90.2650   70.6620  -14.0750 O.2   176  SER176     -0.2866
     44  CB        90.8000   72.7230  -16.2350 C.3   176  SER176      0.2089
     45  OG        91.3760   73.7720  -16.9850 O.3   176  SER176     -0.2183
     46  N         88.6080   75.6940  -10.6090 N.3   190  VAL190     -0.1231
     47  CA        89.5960   76.2430  -11.5660 C.3   190  VAL190      0.1692
     48  C         88.9530   76.4050  -12.9670 C.2   190  VAL190      0.2593
     49  O         88.5440   75.4190  -13.5890 O.2   190  VAL190     -0.2718
     50  CB        90.8820   75.3470  -11.6500 C.3   190  VAL190      0.0266
     51  CG1       91.9190   75.9870  -12.5700 C.3   190  VAL190      0.0020
     52  CG2       91.4850   75.1180  -10.2440 C.3   190  VAL190      0.0020
     53  N         88.8940   77.6430  -13.4660 N.am  191  SER191     -0.1938
     54  CA        88.2310   77.9480  -14.7410 C.3   191  SER191      0.2055
     55  C         89.0780   78.4850  -15.9060 C.2   191  SER191      0.2643
     56  O         89.2740   77.7670  -16.8930 O.2   191  SER191     -0.2714
     57  CB        87.0420   78.8980  -14.4740 C.3   191  SER191      0.2130
     58  OG        86.2540   79.1390  -15.6300 O.3   191  SER191     -0.2179
     59  N         89.5160   79.7520  -15.8370 N.am  192  TRP192     -0.1959
     60  CA        90.3100   80.3550  -16.9270 C.3   192  TRP192      0.1771
     61  C         91.3030   81.4700  -16.5120 C.2   192  TRP192      0.2620
     62  O         91.4560   81.7740  -15.3280 O.2   192  TRP192     -0.2715
     63  CB        89.3780   80.8720  -18.0510 C.3   192  TRP192      0.0590
     64  CG        88.4850   82.0570  -17.6760 C.ar  192  TRP192      0.0006
     65  CD1       87.2730   82.0040  -17.0430 C.ar  192  TRP192      0.0946
     66  CD2       88.7340   83.4560  -17.9400 C.ar  192  TRP192      0.0152
     67  NE1       86.7520   83.2720  -16.8990 N.ar  192  TRP192     -0.2442
     68  CE2       87.6270   84.1800  -17.4390 C.ar  192  TRP192      0.0810
     69  CE3       89.7860   84.1640  -18.5520 C.ar  192  TRP192      0.0012
     70  CZ2       87.5360   85.5810  -17.5290 C.ar  192  TRP192      0.0191
     71  CZ3       89.6950   85.5600  -18.6410 C.ar  192  TRP192      0.0001
     72  CH2       88.5770   86.2470  -18.1300 C.ar  192  TRP192      0.0015
     73  N         92.0140   82.0170  -17.4990 N.am  193  GLY193     -0.1954
     74  CA        92.9730   83.0960  -17.2760 C.3   193  GLY193      0.1869
     75  C         93.7970   83.3170  -18.5420 C.2   193  GLY193      0.2309
     76  O         93.6680   82.5560  -19.5050 O.2   193  GLY193     -0.2863
     77  N         97.2510   82.9990  -19.8820 N.3   195  GLY195     -0.1210
     78  CA        98.5460   82.4110  -19.5700 C.3   195  GLY195      0.1956
     79  C         98.5230   81.8550  -18.1500 C.2   195  GLY195      0.2612
     80  O         97.4430   81.6550  -17.5820 O.2   195  GLY195     -0.2717
     81  N         99.6980   81.6220  -17.5730 N.am  196  CYS196     -0.1970
     82  CA        99.8060   81.1200  -16.2060 C.3   196  CYS196      0.1712
     83  C        100.8990   81.8920  -15.4880 C.2   196  CYS196      0.2296
     84  O        102.0250   81.9870  -15.9870 O.2   196  CYS196     -0.2864
     85  CB       100.1980   79.6360  -16.1770 C.3   196  CYS196      0.0983
     86  SG        99.1010   78.5080  -17.0810 S.3   196  CYS196     -0.0798
     87  N         94.4530   84.3050  -11.8400 N.3   203  GLY203     -0.1210
     88  CA        93.5330   83.2480  -12.2290 C.3   203  GLY203      0.1956
     89  C         92.0790   83.5890  -11.9200 C.2   203  GLY203      0.2612
     90  O         91.8050   84.3140  -10.9600 O.2   203  GLY203     -0.2717
     91  N         91.1570   83.0830  -12.7430 N.am  204  VAL204     -0.1965
     92  CA        89.7120   83.2850  -12.5750 C.3   204  VAL204      0.1727
     93  C         89.0800   81.9300  -12.2180 C.2   204  VAL204      0.2616
     94  O         89.4280   80.8890  -12.7990 O.2   204  VAL204     -0.2715
     95  CB        89.0440   83.8820  -13.8410 C.3   204  VAL204      0.0290
     96  CG1       87.5900   84.2530  -13.5480 C.3   204  VAL204      0.0023
     97  CG2       89.8170   85.1330  -14.2970 C.3   204  VAL204      0.0023
     98  N         88.1270   81.9680  -11.2920 N.am  205  TYR205     -0.1974
     99  CA        87.4710   80.7810  -10.7440 C.3   205  TYR205      0.1639
    100  C         85.9310   80.9000  -10.7220 C.2   205  TYR205      0.2290
    101  O         85.3890   82.0060  -10.5640 O.2   205  TYR205     -0.2864
    102  CB        87.9860   80.5950   -9.2970 C.3   205  TYR205      0.0560
    103  CG        89.4940   80.4050   -9.2000 C.ar  205  TYR205     -0.0198
    104  CD1       90.3750   81.5020   -9.0870 C.ar  205  TYR205     -0.0009
    105  CD2       90.0510   79.1330   -9.3240 C.ar  205  TYR205     -0.0009
    106  CE1       91.7850   81.3190   -9.1180 C.ar  205  TYR205      0.0417
    107  CE2       91.4380   78.9410   -9.3570 C.ar  205  TYR205      0.0417
    108  CZ        92.3050   80.0250   -9.2600 C.ar  205  TYR205      0.1957
    109  OH        93.6640   79.7870   -9.3470 O.3   205  TYR205     -0.2866
@<TRIPOS>BOND
     1    39    37   am
     2     4     3    2
     3    37    36    1
     4    37    38    2
     5     5     2    1
     6     5     6    1
     7     3     2    1
     8    36    35    1
     9     2     1    1
    10    77    78    1
    11    78    79    1
    12     8     6   ar
    13     8    10   ar
    14    76    75    2
    15     6     7   ar
    16    35    32    1
    17    71    69   ar
    18    71    72   ar
    19    69    66   ar
    20    75    74    1
    21    10     9   ar
    22     7     9   ar
    23    79    80    2
    24    79    81   am
    25    72    70   ar
    26    63    64    1
    27    63    60    1
    28    66    64   ar
    29    66    68   ar
    30    32    33    1
    31    32    31    1
    32    64    65   ar
    33    81    82    1
    34    70    68   ar
    35    73    74    1
    36    73    61   am
    37    68    67   ar
    38    33    34    2
    39    86    30    1
    40    86    85    1
    41    65    67   ar
    42    45    44    1
    43    31    27   am
    44    60    61    1
    45    60    59    1
    46    56    55    2
    47    30    29    1
    48    61    62    2
    49    44    41    1
    50    82    85    1
    51    82    83    1
    52    84    83    2
    53    55    59   am
    54    55    54    1
    55    27    28    2
    56    27    26    1
    57    58    57    1
    58    29    26    1
    59    26    25    1
    60    54    57    1
    61    54    53    1
    62    41    40    1
    63    41    42    1
    64    97    95    1
    65    43    42    2
    66    95    96    1
    67    95    92    1
    68    49    48    2
    69    25    21   am
    70    53    48   am
    71    22    21    2
    72    18    16   ar
    73    48    47    1
    74    21    20    1
    75    94    93    2
    76    91    92    1
    77    91    89   am
    78    92    93    1
    79    51    50    1
    80    88    89    1
    81    88    87    1
    82    93    98   am
    83    16    17   ar
    84    16    15    1
    85    89    90    2
    86    50    47    1
    87    50    52    1
    88    47    46    1
    89    24    23    1
    90    15    12    1
    91    20    23    1
    92    20    19    1
    93    98    99    1
    94    19    13   am
    95    99   100    1
    96    99   102    1
    97   100   101    2
    98    13    14    2
    99    13    12    1
   100    12    11    1
   101   107   105   ar
   102   107   108   ar
   103   109   108    1
   104   105   103   ar
   105   102   103    1
   106   108   106   ar
   107   103   104   ar
   108   106   104   ar
