@<TRIPOS>MOLECULE
tmp/1utoA00.pdb
 94 92 0 0 0
SMALL
GASTEIGER

@<TRIPOS>ATOM
      1  N         36.6030   23.6110   44.6090 N.3    40  HIS40      -0.1241
      2  CA        37.5330   24.6930   44.8950 C.3    40  HIS40       0.1621
      3  C         38.5750   24.7620   43.7780 C.2    40  HIS40       0.2264
      4  O         39.3150   25.7600   43.7280 O.2    40  HIS40      -0.2867
      5  CB        38.1580   24.5790   46.2810 C.3    40  HIS40       0.0745
      6  CG        39.2840   23.5830   46.4530 C.ar   40  HIS40       0.0817
      7  ND1       39.1460   22.3200   46.9420 N.ar   40  HIS40      -0.2268
      8  CD2       40.5930   23.6890   46.1960 C.ar   40  HIS40       0.1154
      9  CE1       40.3110   21.7030   46.9560 C.ar   40  HIS40       0.1986
     10  NE2       41.2350   22.5250   46.5200 N.ar   40  HIS40      -0.2212
     11  N         50.5770   12.4240   53.7000 N.3   171  ASP171     -0.1225
     12  CA        49.3840   13.2150   53.4260 C.3   171  ASP171      0.1805
     13  C         49.3770   13.7310   51.9970 C.2   171  ASP171      0.2598
     14  O         50.3820   13.7100   51.2860 O.2   171  ASP171     -0.2718
     15  CB        49.3730   14.4020   54.3880 C.3   171  ASP171      0.1424
     16  CG        48.0510   15.0420   54.7280 C.2   171  ASP171      0.3668
     17  OD1       47.9910   15.9840   55.5660 O.co2 171  ASP171     -0.2456
     18  OD2       47.0140   14.6130   54.1410 O.co2 171  ASP171     -0.2456
     19  N         48.2230   14.2340   51.5970 N.am  172  SER172     -0.1938
     20  CA        48.0940   15.0360   50.3920 C.3   172  SER172      0.2055
     21  C         48.4590   16.4970   50.7310 C.2   172  SER172      0.2643
     22  O         48.4540   16.8660   51.8960 O.2   172  SER172     -0.2714
     23  CB        46.6930   14.9710   49.8000 C.3   172  SER172      0.2130
     24  OG        45.7090   15.3440   50.7320 O.3   172  SER172     -0.2179
     25  N         48.7850   17.2650   49.7090 N.am  173  CYS173     -0.1953
     26  CA        49.2800   18.6290   49.9570 C.3   173  CYS173      0.1843
     27  C         48.8920   19.5430   48.8080 C.2   173  CYS173      0.2625
     28  O         48.1820   19.1500   47.8800 O.2   173  CYS173     -0.2714
     29  CB        50.7590   18.5530   50.3520 C.3   173  CYS173      0.0997
     30  SG        51.4120   20.0330   51.1030 S.3   173  CYS173     -0.0797
     31  N         49.2990   20.7900   48.8490 N.am  174  GLN174     -0.1963
     32  CA        48.9880   21.7940   47.8350 C.3   174  GLN174      0.1733
     33  C         49.3590   21.2790   46.4460 C.2   174  GLN174      0.2616
     34  O         50.4430   20.7970   46.1860 O.2   174  GLN174     -0.2715
     35  CB        49.7380   23.0890   48.1330 C.3   174  GLN174      0.0408
     36  CG        49.3240   24.2360   47.2490 C.3   174  GLN174      0.0908
     37  CD        49.9020   25.6000   47.4470 C.2   174  GLN174      0.2608
     38  OE1       50.7960   25.8800   48.2330 O.2   174  GLN174     -0.2717
     39  NE2       49.3060   26.4820   46.6350 N.am  174  GLN174     -0.0878
     40  N         48.3680   21.3940   45.5490 N.am  175  GLY175     -0.1955
     41  CA        48.5340   20.9180   44.1940 C.3   175  GLY175      0.1869
     42  C         47.9790   19.5490   43.9390 C.2   175  GLY175      0.2309
     43  O         47.8070   19.1350   42.7960 O.2   175  GLY175     -0.2863
     44  N         44.9540   18.9270   45.2260 N.3   177  SER177     -0.1217
     45  CA        43.5580   19.3200   45.2380 C.3   177  SER177      0.1889
     46  C         42.8450   18.7650   44.0300 C.2   177  SER177      0.2288
     47  O         43.3150   18.8990   42.9070 O.2   177  SER177     -0.2866
     48  CB        43.4150   20.8570   45.1370 C.3   177  SER177      0.2089
     49  OG        43.6860   21.4870   46.3240 O.3   177  SER177     -0.2183
     50  N         40.5780   15.0020   46.8980 N.3   191  VAL191     -0.1231
     51  CA        41.4270   15.8060   47.7460 C.3   191  VAL191      0.1692
     52  C         40.8070   17.1850   47.9430 C.2   191  VAL191      0.2593
     53  O         40.6280   17.9300   46.9910 O.2   191  VAL191     -0.2718
     54  CB        42.8320   15.9330   47.1390 C.3   191  VAL191      0.0266
     55  CG1       43.6390   16.8460   48.0540 C.3   191  VAL191      0.0020
     56  CG2       43.5160   14.5850   46.9030 C.3   191  VAL191      0.0020
     57  N         40.4770   17.5360   49.1990 N.am  192  SER192     -0.1938
     58  CA        39.6970   18.7410   49.4760 C.3   192  SER192      0.2055
     59  C         40.3940   19.7560   50.3460 C.2   192  SER192      0.2643
     60  O         40.6050   20.8720   49.8440 O.2   192  SER192     -0.2714
     61  CB        38.3170   18.3490   50.0510 C.3   192  SER192      0.2130
     62  OG        37.4880   19.4470   50.2780 O.3   192  SER192     -0.2179
     63  N         40.7810   19.4330   51.5570 N.am  193  TRP193     -0.1959
     64  CA        41.4230   20.4200   52.4290 C.3   193  TRP193      0.1771
     65  C         42.1220   19.7510   53.5910 C.2   193  TRP193      0.2620
     66  O         42.0840   18.5350   53.7380 O.2   193  TRP193     -0.2715
     67  CB        40.4530   21.4610   52.9290 C.3   193  TRP193      0.0590
     68  CG        39.2900   20.9960   53.7610 C.ar  193  TRP193      0.0006
     69  CD1       38.1350   20.4440   53.3020 C.ar  193  TRP193      0.0946
     70  CD2       39.2090   21.0400   55.1920 C.ar  193  TRP193      0.0152
     71  NE1       37.2940   20.1680   54.3690 N.ar  193  TRP193     -0.2442
     72  CE2       37.9560   20.5170   55.5460 C.ar  193  TRP193      0.0810
     73  CE3       40.0750   21.4950   56.2060 C.ar  193  TRP193      0.0012
     74  CZ2       37.5260   20.4120   56.8560 C.ar  193  TRP193      0.0191
     75  CZ3       39.6450   21.3800   57.5090 C.ar  193  TRP193      0.0001
     76  CH2       38.4070   20.8500   57.8130 C.ar  193  TRP193      0.0015
     77  N         42.7770   20.5350   54.4230 N.am  194  GLY194     -0.1954
     78  CA        43.3700   20.1210   55.6440 C.3   194  GLY194      0.1869
     79  C         44.0380   21.3080   56.3250 C.2   194  GLY194      0.2309
     80  O         43.9110   22.4390   55.9170 O.2   194  GLY194     -0.2863
     81  N         47.6150   22.4860   57.0330 N.3   196  GLY196     -0.1210
     82  CA        48.9160   22.1820   56.5240 C.3   196  GLY196      0.1956
     83  C         48.9190   20.8180   55.8870 C.2   196  GLY196      0.2612
     84  O         47.9360   20.3060   55.3720 O.2   196  GLY196     -0.2717
     85  N         50.0490   20.1370   55.8410 N.am  197  CYS197     -0.1970
     86  CA        50.2150   18.8310   55.2490 C.3   197  CYS197      0.1712
     87  C         51.0800   17.9290   56.1070 C.2   197  CYS197      0.2296
     88  O         52.1680   18.3640   56.5130 O.2   197  CYS197     -0.2864
     89  CB        50.9210   18.8680   53.8530 C.3   197  CYS197      0.0983
     90  SG        50.1560   20.1060   52.7650 S.3   197  CYS197     -0.0798
     91  N         44.4550   14.6420   56.1860 N.3   204  GLY204     -0.1225
     92  CA        43.7140   15.2060   55.0570 C.3   204  GLY204      0.1811
     93  C         42.2390   14.9690   55.1380 C.2   204  GLY204      0.2280
     94  O         41.8150   13.9440   55.6650 O.2   204  GLY204     -0.2866
@<TRIPOS>BOND
     1    43    42    2
     2    47    46    2
     3     4     3    2
     4     3     2    1
     5    42    41    1
     6    46    45    1
     7    41    40    1
     8     1     2    1
     9     2     5    1
    10    48    45    1
    11    48    49    1
    12    44    45    1
    13    40    33   am
    14    34    33    2
    15     8     6   ar
    16     8    10   ar
    17     5     6    1
    18    33    32    1
    19     6     7   ar
    20    10     9   ar
    21    39    37   am
    22    50    51    1
    23    56    54    1
    24     7     9   ar
    25    53    52    2
    26    54    51    1
    27    54    55    1
    28    36    37    1
    29    36    35    1
    30    37    38    2
    31    51    52    1
    32    32    35    1
    33    32    31    1
    34    28    27    2
    35    52    57   am
    36    27    31   am
    37    27    26    1
    38    57    58    1
    39    58    61    1
    40    58    59    1
    41    25    26    1
    42    25    21   am
    43    23    20    1
    44    23    24    1
    45    60    59    2
    46    26    29    1
    47    61    62    1
    48    59    63   am
    49    29    30    1
    50    20    21    1
    51    20    19    1
    52    21    22    2
    53    30    90    1
    54    14    13    2
    55    63    64    1
    56    19    13   am
    57    13    12    1
    58    64    67    1
    59    64    65    1
    60    90    89    1
    61    67    68    1
    62    69    68   ar
    63    69    71   ar
    64    12    11    1
    65    12    15    1
    66    65    66    2
    67    65    77   am
    68    68    70   ar
    69    89    86    1
    70    18    16   ar
    71    71    72   ar
    72    15    16    1
    73    77    78    1
    74    16    17   ar
    75    92    93    1
    76    92    91    1
    77    93    94    2
    78    70    72   ar
    79    70    73   ar
    80    86    85    1
    81    86    87    1
    82    84    83    2
    83    72    74   ar
    84    78    79    1
    85    85    83   am
    86    83    82    1
    87    80    79    2
    88    87    88    2
    89    73    75   ar
    90    82    81    1
    91    74    76   ar
    92    75    76   ar
