@<TRIPOS>MOLECULE
tmp/1utrB00.pdb
 133 124 0 0 0
SMALL
GASTEIGER

@<TRIPOS>ATOM
      1  N        118.6980   -6.2930   10.8260 N.3     5  PHE5       -0.1241
      2  CA       118.4710   -5.5200    9.5710 C.3     5  PHE5        0.1605
      3  C        119.1970   -4.1760    9.6660 C.2     5  PHE5        0.2264
      4  O        119.5690   -3.5920    8.6670 O.2     5  PHE5       -0.2867
      5  CB       116.9710   -5.2820    9.3820 C.3     5  PHE5        0.0534
      6  CG       116.7470   -4.2220    8.3280 C.ar    5  PHE5       -0.0203
      7  CD1      117.2380   -4.4120    7.0310 C.ar    5  PHE5       -0.0042
      8  CD2      116.0460   -3.0540    8.6480 C.ar    5  PHE5       -0.0042
      9  CE1      117.0260   -3.4340    6.0530 C.ar    5  PHE5       -0.0003
     10  CE2      115.8350   -2.0750    7.6700 C.ar    5  PHE5       -0.0003
     11  CZ       116.3250   -2.2650    6.3720 C.ar    5  PHE5       -0.0000
     12  N        122.6350   -3.7470    8.3950 N.3     8  VAL8       -0.1231
     13  CA       122.6520   -3.5200    6.9300 C.3     8  VAL8        0.1692
     14  C        122.2520   -2.0720    6.6530 C.2     8  VAL8        0.2591
     15  O        122.6620   -1.4850    5.6750 O.2     8  VAL8       -0.2718
     16  CB       121.6570   -4.4640    6.2670 C.3     8  VAL8        0.0266
     17  CG1      121.8350   -4.4090    4.7490 C.3     8  VAL8        0.0020
     18  CG2      121.9130   -5.8880    6.7660 C.3     8  VAL8        0.0020
     19  N        121.4590   -1.4870    7.5130 N.am    9  LEU9       -0.1980
     20  CA       121.0540   -0.0710    7.2970 C.3     9  LEU9        0.1596
     21  C        122.3120    0.7980    7.2930 C.2     9  LEU9        0.2287
     22  O        122.4610    1.6930    6.4840 O.2     9  LEU9       -0.2864
     23  CB       120.1230    0.3760    8.4270 C.3     9  LEU9        0.0297
     24  CG       119.0760    1.3430    7.8720 C.3     9  LEU9        0.0022
     25  CD1      118.2860    0.6550    6.7570 C.3     9  LEU9        0.0001
     26  CD2      118.1200    1.7540    8.9940 C.3     9  LEU9        0.0001
     27  N        124.8340   -0.2320    4.6160 N.3    12  LEU12      -0.1231
     28  CA       124.2560    0.2090    3.3120 C.3    12  LEU12       0.1693
     29  C        124.5320    1.7040    3.0990 C.2    12  LEU12       0.2591
     30  O        125.0950    2.1040    2.1000 O.2    12  LEU12      -0.2718
     31  CB       122.7390   -0.0450    3.3390 C.3    12  LEU12       0.0284
     32  CG       122.0130    0.9070    2.3800 C.3    12  LEU12       0.0019
     33  CD1      122.4540    0.6250    0.9460 C.3    12  LEU12       0.0001
     34  CD2      120.5010    0.6970    2.5000 C.3    12  LEU12       0.0001
     35  N        124.1150    2.5300    4.0190 N.am   13  LEU13      -0.1980
     36  CA       124.3240    3.9960    3.8560 C.3    13  LEU13       0.1596
     37  C        125.5650    4.4440    4.6320 C.2    13  LEU13       0.2287
     38  O        126.3840    5.1890    4.1320 O.2    13  LEU13      -0.2864
     39  CB       123.1020    4.7520    4.3900 C.3    13  LEU13       0.0297
     40  CG       121.8200    3.9530    4.1280 C.3    13  LEU13       0.0022
     41  CD1      120.7570    4.3050    5.1720 C.3    13  LEU13       0.0001
     42  CD2      121.2910    4.2730    2.7280 C.3    13  LEU13       0.0001
     43  N        128.7830   -4.3740    4.5570 N.3    20  TYR20      -0.1241
     44  CA       127.4400   -4.6810    3.9940 C.3    20  TYR20       0.1605
     45  C        127.3450   -6.1770    3.6960 C.2    20  TYR20       0.2264
     46  O        126.4580   -6.8580    4.1690 O.2    20  TYR20      -0.2867
     47  CB       127.2350   -3.8940    2.7010 C.3    20  TYR20       0.0534
     48  CG       125.9740   -4.3700    2.0210 C.ar   20  TYR20      -0.0201
     49  CD1      124.7510   -3.7610    2.3170 C.ar   20  TYR20      -0.0009
     50  CD2      126.0280   -5.4190    1.0950 C.ar   20  TYR20      -0.0009
     51  CE1      123.5810   -4.1990    1.6870 C.ar   20  TYR20       0.0417
     52  CE2      124.8560   -5.8580    0.4650 C.ar   20  TYR20       0.0417
     53  CZ       123.6290   -5.2450    0.7610 C.ar   20  TYR20       0.1957
     54  OH       122.4680   -5.6650    0.1370 O.3    20  TYR20      -0.2866
     55  N        125.4840   -9.1940    5.7740 N.3    24  LEU24      -0.1245
     56  CA       124.4850  -10.1380    5.2380 C.3    24  LEU24       0.1561
     57  C        124.8830  -11.5690    5.6180 C.2    24  LEU24       0.2260
     58  O        124.1190  -12.4980    5.4640 O.2    24  LEU24      -0.2867
     59  CB       124.4880   -9.9980    3.7210 C.3    24  LEU24       0.0270
     60  CG       123.7710   -8.7090    3.3130 C.3    24  LEU24       0.0019
     61  CD1      124.4430   -8.1250    2.0700 C.3    24  LEU24       0.0001
     62  CD2      122.3070   -9.0110    2.9930 C.3    24  LEU24       0.0001
     63  N        122.6990   -8.9890   -5.6870 N.3    36  ALA36      -0.1231
     64  CA       121.9380   -7.7200   -5.7540 C.3    36  ALA36       0.1694
     65  C        122.2600   -6.8550   -4.5400 C.2    36  ALA36       0.2592
     66  O        122.2660   -5.6460   -4.6190 O.2    36  ALA36      -0.2718
     67  CB       120.4530   -8.0520   -5.7650 C.3    36  ALA36       0.0304
     68  N        122.5270   -7.4590   -3.4160 N.am   37  GLY37      -0.1957
     69  CA       122.8490   -6.6560   -2.2040 C.3    37  GLY37       0.1869
     70  C        124.2250   -6.0170   -2.3780 C.2    37  GLY37       0.2309
     71  O        124.4880   -4.9390   -1.8840 O.2    37  GLY37      -0.2863
     72  N        123.7290   -3.0950   -4.4290 N.3    40  LEU40      -0.1245
     73  CA       122.9350   -2.2160   -3.5370 C.3    40  LEU40       0.1561
     74  C        123.8940   -1.2780   -2.8010 C.2    40  LEU40       0.2260
     75  O        123.6100   -0.1150   -2.5970 O.2    40  LEU40      -0.2867
     76  CB       122.1700   -3.1130   -2.5480 C.3    40  LEU40       0.0270
     77  CG       121.8430   -2.3720   -1.2440 C.3    40  LEU40       0.0019
     78  CD1      123.0690   -2.3200   -0.3330 C.3    40  LEU40       0.0001
     79  CD2      121.3890   -0.9570   -1.5550 C.3    40  LEU40       0.0001
     80  N        125.4890    1.5170   -5.3920 N.3    43  LEU43      -0.1231
     81  CA       124.5570    2.6380   -5.6170 C.3    43  LEU43       0.1693
     82  C        124.6400    3.6180   -4.4440 C.2    43  LEU43       0.2591
     83  O        124.3960    4.8000   -4.5910 O.2    43  LEU43      -0.2718
     84  CB       123.1480    2.0620   -5.7120 C.3    43  LEU43       0.0284
     85  CG       123.1390    0.8340   -6.6320 C.3    43  LEU43       0.0019
     86  CD1      121.7020    0.5240   -7.0520 C.3    43  LEU43       0.0001
     87  CD2      123.9800    1.1160   -7.8810 C.3    43  LEU43       0.0001
     88  N        124.9830    3.1370   -3.2810 N.am   44  VAL44      -0.1980
     89  CA       125.0830    4.0390   -2.1000 C.3    44  VAL44       0.1595
     90  C        126.4030    4.8120   -2.1610 C.2    44  VAL44       0.2287
     91  O        126.4670    5.9760   -1.8200 O.2    44  VAL44      -0.2864
     92  CB       125.0350    3.2060   -0.8190 C.3    44  VAL44       0.0276
     93  CG1      125.3150    4.1040    0.3880 C.3    44  VAL44       0.0022
     94  CG2      123.6470    2.5800   -0.6750 C.3    44  VAL44       0.0022
     95  N        118.5530    9.4850    1.7510 N.3    55  ILE55      -0.1245
     96  CA       117.9070    8.1450    1.8050 C.3    55  ILE55       0.1561
     97  C        117.9840    7.5980    3.2370 C.2    55  ILE55       0.2260
     98  O        117.1680    6.8020    3.6400 O.2    55  ILE55      -0.2867
     99  CB       118.6220    7.1750    0.8370 C.3    55  ILE55       0.0252
    100  CG1      118.1200    7.3430   -0.6070 C.3    55  ILE55       0.0019
    101  CG2      118.3600    5.7330    1.2630 C.3    55  ILE55       0.0019
    102  CD1      116.6630    7.8080   -0.6260 C.3    55  ILE55       0.0001
    103  N        115.6410    9.7160    4.9670 N.3    58  LEU58      -0.1231
    104  CA       114.4190    9.6640    4.1300 C.3    58  LEU58       0.1693
    105  C        113.6850    8.3660    4.4270 C.2    58  LEU58       0.2592
    106  O        112.4840    8.3400    4.6030 O.2    58  LEU58      -0.2718
    107  CB       114.8970    9.6720    2.6760 C.3    58  LEU58       0.0284
    108  CG       113.7900    9.3830    1.6480 C.3    58  LEU58       0.0019
    109  CD1      114.0280    8.0030    1.0720 C.3    58  LEU58       0.0001
    110  CD2      112.3840    9.4390    2.2560 C.3    58  LEU58       0.0001
    111  N        114.4040    7.2870    4.4730 N.am   59  THR59      -0.1953
    112  CA       113.7570    5.9890    4.7410 C.3    59  THR59       0.1897
    113  C        113.0170    6.0680    6.0770 C.2    59  THR59       0.2313
    114  O        112.1520    5.2670    6.3730 O.2    59  THR59      -0.2863
    115  CB       114.8180    4.8850    4.8200 C.3    59  THR59       0.1794
    116  OG1      115.5670    4.8530    3.6180 O.3    59  THR59      -0.2208
    117  CG2      114.1350    3.5330    5.0370 C.3    59  THR59       0.0378
    118  N        109.6400    7.8890    5.4340 N.3    62  ILE62      -0.1231
    119  CA       108.7340    6.9970    4.6620 C.3    62  ILE62       0.1692
    120  C        108.2540    5.8550    5.5590 C.2    62  ILE62       0.2591
    121  O        107.0940    5.4950    5.5580 O.2    62  ILE62      -0.2718
    122  CB       109.4880    6.4250    3.4640 C.3    62  ILE62       0.0266
    123  CG1      108.4970    5.7580    2.5090 C.3    62  ILE62       0.0019
    124  CG2      110.4970    5.3930    3.9530 C.3    62  ILE62       0.0020
    125  CD1      109.2590    4.8980    1.5000 C.3    62  ILE62       0.0001
    126  N        109.1430    5.2760    6.3160 N.am   63  LEU63      -0.1980
    127  CA       108.7640    4.1560    7.2010 C.3    63  LEU63       0.1596
    128  C        108.3500    4.6900    8.5740 C.2    63  LEU63       0.2287
    129  O        107.1880    4.6770    8.9300 O.2    63  LEU63      -0.2864
    130  CB       109.9750    3.2460    7.3370 C.3    63  LEU63       0.0297
    131  CG       109.9260    2.1760    6.2480 C.3    63  LEU63       0.0022
    132  CD1      111.3000    2.0480    5.5930 C.3    63  LEU63       0.0001
    133  CD2      109.5370    0.8360    6.8700 C.3    63  LEU63       0.0001
@<TRIPOS>BOND
     1    87    85    1
     2    86    85    1
     3    85    84    1
     4    67    64    1
     5    64    63    1
     6    64    65    1
     7    84    81    1
     8    81    80    1
     9    81    82    1
    10    66    65    2
    11    83    82    2
    12    65    68   am
    13    82    88   am
    14    72    73    1
    15    73    74    1
    16    73    76    1
    17    68    69    1
    18    88    89    1
    19    74    75    2
    20    76    77    1
    21    70    69    1
    22    70    71    2
    23    90    89    1
    24    90    91    2
    25    89    92    1
    26    79    77    1
    27    77    78    1
    28    92    94    1
    29    92    93    1
    30   102   100    1
    31   100    99    1
    32    54    53    1
    33    52    53   ar
    34    52    50   ar
    35    53    51   ar
    36    99   101    1
    37    99    96    1
    38    33    32    1
    39   109   108    1
    40    50    48   ar
    41   125   123    1
    42   108   110    1
    43   108   107    1
    44    51    49   ar
    45    95    96    1
    46    96    97    1
    47    48    49   ar
    48    48    47    1
    49    61    60    1
    50    30    29    2
    51    32    34    1
    52    32    31    1
    53   123   122    1
    54   107   104    1
    55    47    44    1
    56    42    40    1
    57    62    60    1
    58    29    28    1
    59    29    35   am
    60    97    98    2
    61    28    31    1
    62    28    27    1
    63    60    59    1
    64   122   124    1
    65   122   119    1
    66   116   115    1
    67    45    44    1
    68    45    46    2
    69    59    56    1
    70    36    35    1
    71    36    39    1
    72    36    37    1
    73    44    43    1
    74    40    39    1
    75    40    41    1
    76   104   105    1
    77   104   103    1
    78    38    37    2
    79   105   111   am
    80   105   106    2
    81   111   112    1
    82   119   118    1
    83   119   120    1
    84   112   115    1
    85   112   113    1
    86    17    16    1
    87   115   117    1
    88    56    57    1
    89    56    55    1
    90    58    57    2
    91   121   120    2
    92   120   126   am
    93   132   131    1
    94    15    14    2
    95     9    11   ar
    96     9     7   ar
    97   113   114    2
    98   131   133    1
    99   131   130    1
   100    16    18    1
   101    16    13    1
   102   126   127    1
   103    11    10   ar
   104    22    21    2
   105    14    13    1
   106    14    19   am
   107    25    24    1
   108    13    12    1
   109     7     6   ar
   110   127   130    1
   111   127   128    1
   112    21    20    1
   113    20    19    1
   114    20    23    1
   115    10     8   ar
   116    24    23    1
   117    24    26    1
   118     6     8   ar
   119     6     5    1
   120   128   129    2
   121     4     3    2
   122     5     2    1
   123     2     3    1
   124     2     1    1
