@<TRIPOS>MOLECULE
tmp/1uttA00.pdb
 161 160 0 0 0
SMALL
GASTEIGER

@<TRIPOS>ATOM
      1  N        123.5560   25.5950   82.4490 N.3    74  GLY74      -0.1210
      2  CA       122.4080   25.3090   81.5970 C.3    74  GLY74       0.1956
      3  C        121.2210   26.2020   81.9070 C.2    74  GLY74       0.2612
      4  O        121.3000   27.4220   81.7530 O.2    74  GLY74      -0.2717
      5  N        120.1100   25.6000   82.3200 N.am   75  ILE75      -0.1965
      6  CA       118.9250   26.3690   82.6830 C.3    75  ILE75       0.1727
      7  C        119.2400   27.0070   84.0380 C.2    75  ILE75       0.2616
      8  O        119.6500   26.3190   84.9800 O.2    75  ILE75      -0.2715
      9  CB       117.6890   25.4580   82.7890 C.3    75  ILE75       0.0290
     10  CG1      117.3230   24.9470   81.3940 C.3    75  ILE75       0.0022
     11  CG2      116.5210   26.2170   83.4220 C.3    75  ILE75       0.0023
     12  CD1      116.0670   24.1330   81.3500 C.3    75  ILE75       0.0001
     13  N        119.0630   28.3220   84.1280 N.am   76  LEU76      -0.1963
     14  CA       119.3850   29.0570   85.3530 C.3    76  LEU76       0.1728
     15  C        118.1700   29.3450   86.2170 C.2    76  LEU76       0.2616
     16  O        118.2900   29.5190   87.4290 O.2    76  LEU76      -0.2715
     17  CB       120.0650   30.3880   84.9930 C.3    76  LEU76       0.0311
     18  CG       121.1210   30.3080   83.8820 C.3    76  LEU76       0.0022
     19  CD1      121.5530   31.7140   83.4740 C.3    76  LEU76       0.0001
     20  CD2      122.3150   29.4800   84.3580 C.3    76  LEU76       0.0001
     21  N        117.0030   29.3940   85.5880 N.am   77  ALA77      -0.1977
     22  CA       115.7700   29.7000   86.2920 C.3    77  ALA77       0.1597
     23  C        114.6180   29.6130   85.3060 C.2    77  ALA77       0.2287
     24  O        114.8320   29.3990   84.1160 O.2    77  ALA77      -0.2864
     25  CB       115.8480   31.1140   86.8570 C.3    77  ALA77       0.0319
     26  N        120.8690   40.1430   86.7510 N.3   109  LEU109     -0.1231
     27  CA       120.6610   39.9740   85.3180 C.3   109  LEU109      0.1693
     28  C        119.6470   38.8750   85.0320 C.2   109  LEU109      0.2592
     29  O        118.7530   39.0420   84.2030 O.2   109  LEU109     -0.2718
     30  CB       121.9860   39.6490   84.6210 C.3   109  LEU109      0.0284
     31  CG       123.0490   40.7580   84.5790 C.3   109  LEU109      0.0019
     32  CD1      124.3450   40.1930   84.0090 C.3   109  LEU109      0.0001
     33  CD2      122.5540   41.9310   83.7250 C.3   109  LEU109      0.0001
     34  N        119.7830   37.7520   85.7270 N.am  110  THR110     -0.1953
     35  CA       118.8760   36.6290   85.5270 C.3   110  THR110      0.1897
     36  C        117.4640   36.9850   85.9690 C.2   110  THR110      0.2313
     37  O        116.4860   36.6070   85.3160 O.2   110  THR110     -0.2863
     38  CB       119.3570   35.3870   86.2980 C.3   110  THR110      0.1794
     39  OG1      120.7080   35.0950   85.9200 O.3   110  THR110     -0.2208
     40  CG2      118.4790   34.1790   85.9680 C.3   110  THR110      0.0378
     41  N        115.4870   38.9770   83.3700 N.3   113  HIS113     -0.1226
     42  CA       114.9620   38.0910   82.3460 C.3   113  HIS113      0.1752
     43  C        113.7190   37.3620   82.8610 C.2   113  HIS113      0.2595
     44  O        112.6750   37.3650   82.2120 O.2   113  HIS113     -0.2718
     45  CB       116.0270   37.0640   81.9590 C.3   113  HIS113      0.0759
     46  CG       115.5680   36.0670   80.9380 C.ar  113  HIS113      0.0818
     47  ND1      115.6900   36.2800   79.5820 N.ar  113  HIS113     -0.2268
     48  CD2      114.9990   34.8460   81.0770 C.ar  113  HIS113      0.1154
     49  CE1      115.2200   35.2320   78.9300 C.ar  113  HIS113      0.1986
     50  NE2      114.7950   34.3480   79.8130 N.ar  113  HIS113     -0.2212
     51  N        113.8320   36.7430   84.0320 N.am  114  GLU114     -0.1979
     52  CA       112.7150   35.9960   84.6050 C.3   114  GLU114      0.1602
     53  C        111.4820   36.8560   84.8590 C.2   114  GLU114      0.2287
     54  O        110.3590   36.4450   84.5630 O.2   114  GLU114     -0.2864
     55  CB       113.1440   35.3140   85.9050 C.3   114  GLU114      0.0415
     56  CG       114.1730   34.2170   85.7120 C.3   114  GLU114      0.1163
     57  CD       113.7630   33.2280   84.6380 C.2   114  GLU114      0.3649
     58  OE1      112.5930   32.7930   84.6320 O.co2 114  GLU114     -0.2457
     59  OE2      114.6110   32.8750   83.8000 O.co2 114  GLU114     -0.2457
     60  N        110.3540   34.8270   74.8810 N.3   123  HIS123     -0.1241
     61  CA       111.7140   34.9990   74.3970 C.3   123  HIS123      0.1621
     62  C        111.7680   35.8420   73.1300 C.2   123  HIS123      0.2264
     63  O        110.8410   35.8460   72.3250 O.2   123  HIS123     -0.2867
     64  CB       112.3510   33.6310   74.1480 C.3   123  HIS123      0.0745
     65  CG       112.7220   32.9100   75.4040 C.ar  123  HIS123      0.0817
     66  ND1      112.8520   31.5400   75.4670 N.ar  123  HIS123     -0.2268
     67  CD2      113.0210   33.3740   76.6410 C.ar  123  HIS123      0.1154
     68  CE1      113.2170   31.1910   76.6890 C.ar  123  HIS123      0.1986
     69  NE2      113.3270   32.2850   77.4200 N.ar  123  HIS123     -0.2212
     70  N        119.3070   39.5300   69.5310 N.3   127  PRO127     -0.2102
     71  CA       120.5240   39.2560   70.3060 C.3   127  PRO127      0.1504
     72  C        120.7840   40.2400   71.4470 C.2   127  PRO127      0.2576
     73  O        121.4320   39.8940   72.4340 O.2   127  PRO127     -0.2718
     74  CB       121.6350   39.3170   69.2520 C.3   127  PRO127      0.0282
     75  CG       120.9380   38.9770   67.9840 C.3   127  PRO127      0.0208
     76  CD       119.6320   39.7210   68.1080 C.3   127  PRO127      0.0893
     77  N        120.2850   41.4630   71.3010 N.am  128  LYS128     -0.1966
     78  CA       120.4820   42.5030   72.3110 C.3   128  LYS128      0.1728
     79  C        119.4210   42.5190   73.4140 C.2   128  LYS128      0.2616
     80  O        119.6030   43.1690   74.4410 O.2   128  LYS128     -0.2715
     81  CB       120.5080   43.8890   71.6480 C.3   128  LYS128      0.0311
     82  CG       121.6480   44.1090   70.6650 C.3   128  LYS128      0.0038
     83  CD       121.4550   43.3080   69.3900 C.3   128  LYS128      0.0206
     84  CE       122.7110   42.5100   69.0280 C.3   128  LYS128      0.1093
     85  NZ       123.9250   43.3640   68.8450 N.3   128  LYS128     -0.1314
     86  N        118.3170   41.8120   73.2020 N.am  129  ALA129     -0.1963
     87  CA       117.2330   41.8050   74.1790 C.3   129  ALA129      0.1728
     88  C        117.5460   41.0220   75.4520 C.2   129  ALA129      0.2616
     89  O        118.1850   39.9680   75.4100 O.2   129  ALA129     -0.2715
     90  CB       115.9630   41.2610   73.5370 C.3   129  ALA129      0.0334
     91  N        117.0920   41.5410   76.5890 N.am  130  VAL130     -0.1977
     92  CA       117.3170   40.8470   77.8430 C.3   130  VAL130      0.1596
     93  C        116.4940   39.5520   77.8010 C.2   130  VAL130      0.2287
     94  O        116.8110   38.5780   78.4880 O.2   130  VAL130     -0.2864
     95  CB       116.8920   41.7030   79.0540 C.3   130  VAL130      0.0276
     96  CG1      115.3750   41.7710   79.1550 C.3   130  VAL130      0.0022
     97  CG2      117.4940   41.1250   80.3200 C.3   130  VAL130      0.0022
     98  N        116.3530   37.5950   75.2880 N.3   132  PHE132     -0.1228
     99  CA       117.0090   36.6540   74.3770 C.3   132  PHE132      0.1721
    100  C        117.3610   35.4900   75.3080 C.2   132  PHE132      0.2437
    101  O        117.8920   35.7120   76.3900 O.2   132  PHE132     -0.2733
    102  CB       118.2880   37.2680   73.8030 C.3   132  PHE132      0.0547
    103  CG       118.9800   36.3970   72.7880 C.ar  132  PHE132     -0.0202
    104  CD1      118.4050   36.1670   71.5480 C.ar  132  PHE132     -0.0042
    105  CD2      120.1980   35.7980   73.0800 C.ar  132  PHE132     -0.0042
    106  CE1      119.0280   35.3550   70.6140 C.ar  132  PHE132     -0.0003
    107  CE2      120.8320   34.9810   72.1490 C.ar  132  PHE132     -0.0003
    108  CZ       120.2450   34.7600   70.9140 C.ar  132  PHE132     -0.0000
    109  N        117.0800   34.2390   74.9010 N.am  133  PRO133     -0.2718
    110  CA       117.3710   33.0720   75.7490 C.3   133  PRO133      0.1535
    111  C        118.8110   32.6600   76.0720 C.2   133  PRO133      0.2599
    112  O        119.0210   31.5990   76.6520 O.2   133  PRO133     -0.2715
    113  CB       116.5930   31.9480   75.0630 C.3   133  PRO133      0.0310
    114  CG       116.6400   32.3350   73.6310 C.3   133  PRO133      0.0237
    115  CD       116.4020   33.8320   73.6570 C.3   133  PRO133      0.0939
    116  N        119.8020   33.4640   75.7080 N.am  134  THR134     -0.1937
    117  CA       121.1800   33.1020   76.0270 C.3   134  THR134      0.2028
    118  C        121.8170   34.1090   76.9710 C.2   134  THR134      0.2642
    119  O        121.9140   35.3000   76.6710 O.2   134  THR134     -0.2714
    120  CB       122.0670   32.9810   74.7740 C.3   134  THR134      0.1808
    121  OG1      121.7380   31.7750   74.0690 O.3   134  THR134     -0.2208
    122  CG2      123.5460   32.9370   75.1730 C.3   134  THR134      0.0379
    123  N        122.2540   33.6100   78.1170 N.am  135  TYR135     -0.1959
    124  CA       122.8730   34.4380   79.1350 C.3   135  TYR135      0.1771
    125  C        124.2440   34.9780   78.7470 C.2   135  TYR135      0.2619
    126  O        125.0680   34.2690   78.1710 O.2   135  TYR135     -0.2715
    127  CB       122.9880   33.6380   80.4330 C.3   135  TYR135      0.0574
    128  CG       123.7320   34.3400   81.5490 C.ar  135  TYR135     -0.0198
    129  CD1      125.1210   34.2920   81.6260 C.ar  135  TYR135     -0.0009
    130  CD2      123.0420   35.0360   82.5360 C.ar  135  TYR135     -0.0009
    131  CE1      125.8040   34.9170   82.6600 C.ar  135  TYR135      0.0417
    132  CE2      123.7130   35.6640   83.5740 C.ar  135  TYR135      0.0417
    133  CZ       125.0930   35.6000   83.6330 C.ar  135  TYR135      0.1957
    134  OH       125.7580   36.2110   84.6760 O.3   135  TYR135     -0.2866
    135  N        124.4740   36.2440   79.0740 N.am  136  LYS136     -0.1977
    136  CA       125.7500   36.8990   78.8120 C.3   136  LYS136      0.1596
    137  C        125.9400   37.9820   79.8690 C.2   136  LYS136      0.2287
    138  O        125.1600   38.9310   79.9530 O.2   136  LYS136     -0.2864
    139  CB       125.7720   37.5280   77.4190 C.3   136  LYS136      0.0298
    140  CG       127.1060   38.1920   77.0830 C.3   136  LYS136      0.0038
    141  CD       127.0740   38.8900   75.7310 C.3   136  LYS136      0.0206
    142  CE       128.4280   39.5050   75.4100 C.3   136  LYS136      0.1093
    143  NZ       128.4430   40.1500   74.0660 N.3   136  LYS136     -0.1314
    144  N        126.9780   41.2170   81.8630 N.3   138  VAL138     -0.1245
    145  CA       127.1980   42.6220   81.5280 C.3   138  VAL138      0.1561
    146  C        127.1380   43.3370   82.8720 C.2   138  VAL138      0.2260
    147  O        126.2840   43.0310   83.7050 O.2   138  VAL138     -0.2867
    148  CB       126.0960   43.2130   80.5970 C.3   138  VAL138      0.0252
    149  CG1      126.1180   42.5110   79.2600 C.3   138  VAL138      0.0019
    150  CG2      124.7240   43.0850   81.2430 C.3   138  VAL138      0.0019
    151  N        124.1320   47.8120   81.9900 N.3   143  PHE143     -0.1241
    152  CA       123.0190   47.0170   81.4930 C.3   143  PHE143      0.1605
    153  C        121.8450   47.8960   81.1070 C.2   143  PHE143      0.2264
    154  O        121.5390   48.8750   81.7860 O.2   143  PHE143     -0.2867
    155  CB       122.5020   46.0370   82.5430 C.3   143  PHE143      0.0534
    156  CG       121.1620   45.4480   82.1840 C.ar  143  PHE143     -0.0203
    157  CD1      121.0700   44.3860   81.2960 C.ar  143  PHE143     -0.0042
    158  CD2      119.9890   46.0210   82.6520 C.ar  143  PHE143     -0.0042
    159  CE1      119.8380   43.9150   80.8780 C.ar  143  PHE143     -0.0003
    160  CE2      118.7550   45.5540   82.2340 C.ar  143  PHE143     -0.0003
    161  CZ       118.6810   44.5010   81.3450 C.ar  143  PHE143     -0.0000
@<TRIPOS>BOND
     1    75    76    1
     2    75    74    1
     3    76    70    1
     4    85    84    1
     5    84    83    1
     6    74    71    1
     7    83    82    1
     8    70    71    1
     9    71    72    1
    10   106   108   ar
    11   106   104   ar
    12    82    81    1
    13   108   107   ar
    14    77    72   am
    15    77    78    1
    16    72    73    2
    17   104   103   ar
    18    81    78    1
    19   107   105   ar
    20    78    79    1
    21    63    62    2
    22   103   105   ar
    23   103   102    1
    24    62    61    1
    25    86    79   am
    26    86    87    1
    27    79    80    2
    28    90    87    1
    29   114   115    1
    30   114   113    1
    31   115   109    1
    32   102    99    1
    33   143   142    1
    34   121   120    1
    35    64    61    1
    36    64    65    1
    37    87    88    1
    38    99    98    1
    39    99   100    1
    40    61    60    1
    41   120   122    1
    42   120   117    1
    43   109   100   am
    44   109   110    1
    45   113   110    1
    46   100   101    2
    47    65    66   ar
    48    65    67   ar
    49    89    88    2
    50   142   141    1
    51    88    91   am
    52    66    68   ar
    53   116   117    1
    54   116   111   am
    55   141   140    1
    56   110   111    1
    57   117   118    1
    58   111   112    2
    59    91    92    1
    60    67    69   ar
    61   119   118    2
    62    68    69   ar
    63   118   123   am
    64   140   139    1
    65   139   136    1
    66    93    92    1
    67    93    94    2
    68    92    95    1
    69   123   124    1
    70   126   125    2
    71   125   135   am
    72   125   124    1
    73   136   135    1
    74   136   137    1
    75    49    47   ar
    76    49    50   ar
    77    95    96    1
    78    95    97    1
    79   124   127    1
    80   149   148    1
    81    47    46   ar
    82    50    48   ar
    83   137   138    2
    84   127   128    1
    85   148   150    1
    86   148   145    1
    87   159   157   ar
    88   159   161   ar
    89    46    48   ar
    90    46    45    1
    91   153   152    1
    92   153   154    2
    93   157   156   ar
    94   161   160   ar
    95    12    10    1
    96    10     9    1
    97   152   151    1
    98   152   155    1
    99   145   144    1
   100   145   146    1
   101   128   129   ar
   102   128   130   ar
   103     2     3    1
   104     2     1    1
   105   129   131   ar
   106     4     3    2
   107     3     5   am
   108    45    42    1
   109   156   155    1
   110   156   158   ar
   111    44    43    2
   112   160   158   ar
   113     5     6    1
   114    42    43    1
   115    42    41    1
   116   130   132   ar
   117   131   133   ar
   118     6     9    1
   119     6     7    1
   120     9    11    1
   121    43    51   am
   122   146   147    2
   123    19    18    1
   124   132   133   ar
   125   133   134    1
   126    33    31    1
   127    59    57   ar
   128    18    20    1
   129    18    17    1
   130    32    31    1
   131    51    52    1
   132     7    13   am
   133     7     8    2
   134    24    23    2
   135    13    14    1
   136    29    28    2
   137    54    53    2
   138    31    30    1
   139    52    53    1
   140    52    55    1
   141    30    27    1
   142    58    57   ar
   143    57    56    1
   144    17    14    1
   145    28    27    1
   146    28    34   am
   147    23    22    1
   148    37    36    2
   149    27    26    1
   150    14    15    1
   151    35    34    1
   152    35    36    1
   153    35    38    1
   154    21    15   am
   155    21    22    1
   156    56    55    1
   157    39    38    1
   158    40    38    1
   159    15    16    2
   160    22    25    1
