@<TRIPOS>MOLECULE
tmp/1utzA00.pdb
 161 160 0 0 0
SMALL
GASTEIGER

@<TRIPOS>ATOM
      1  N         43.4910   62.6680   19.4790 N.3    74  GLY74      -0.1210
      2  CA        44.0020   61.9460   18.3310 C.3    74  GLY74       0.1956
      3  C         44.1450   60.4800   18.6780 C.2    74  GLY74       0.2612
      4  O         43.2350   59.8850   19.2570 O.2    74  GLY74      -0.2717
      5  N         45.2880   59.8950   18.3390 N.am   75  ILE75      -0.1965
      6  CA        45.5230   58.4900   18.6330 C.3    75  ILE75       0.1727
      7  C         45.5800   58.2850   20.1440 C.2    75  ILE75       0.2616
      8  O         46.3250   58.9670   20.8460 O.2    75  ILE75      -0.2715
      9  CB        46.8360   58.0060   17.9720 C.3    75  ILE75       0.0290
     10  CG1       46.7000   58.0990   16.4510 C.3    75  ILE75       0.0022
     11  CG2       47.1380   56.5710   18.3770 C.3    75  ILE75       0.0023
     12  CD1       47.9930   57.8640   15.6980 C.3    75  ILE75       0.0001
     13  N         44.7800   57.3480   20.6380 N.am   76  LEU76      -0.1963
     14  CA        44.7170   57.0570   22.0690 C.3    76  LEU76       0.1728
     15  C         45.6230   55.8920   22.4600 C.2    76  LEU76       0.2616
     16  O         46.1340   55.8520   23.5790 O.2    76  LEU76      -0.2715
     17  CB        43.2790   56.7180   22.4590 C.3    76  LEU76       0.0311
     18  CG        42.2500   57.7460   21.9950 C.3    76  LEU76       0.0022
     19  CD1       40.8480   57.1340   22.0280 C.3    76  LEU76       0.0001
     20  CD2       42.3540   58.9930   22.8720 C.3    76  LEU76       0.0001
     21  N         45.8020   54.9480   21.5340 N.am   77  ALA77      -0.1977
     22  CA        46.6270   53.7660   21.7640 C.3    77  ALA77       0.1597
     23  C         46.7980   52.9270   20.4920 C.2    77  ALA77       0.2287
     24  O         46.2280   53.2340   19.4480 O.2    77  ALA77      -0.2864
     25  CB        46.0060   52.9100   22.8630 C.3    77  ALA77       0.0319
     26  N         37.5750   49.7880   28.1310 N.3   109  LEU109     -0.1231
     27  CA        37.1070   49.7230   26.7520 C.3   109  LEU109      0.1693
     28  C         38.2580   49.8120   25.7610 C.2   109  LEU109      0.2592
     29  O         38.3200   49.0340   24.8060 O.2   109  LEU109     -0.2718
     30  CB        36.1030   50.8450   26.4790 C.3   109  LEU109      0.0284
     31  CG        34.8170   50.7830   27.3100 C.3   109  LEU109      0.0019
     32  CD1       34.0200   52.0450   27.0810 C.3   109  LEU109      0.0001
     33  CD2       34.0050   49.5500   26.9350 C.3   109  LEU109      0.0001
     34  N         39.1720   50.7530   25.9800 N.am  110  THR110     -0.1953
     35  CA        40.2960   50.8950   25.0700 C.3   110  THR110      0.1897
     36  C         41.1340   49.6100   25.0720 C.2   110  THR110      0.2313
     37  O         41.5430   49.1270   24.0080 O.2   110  THR110     -0.2863
     38  CB        41.1730   52.1100   25.4450 C.3   110  THR110      0.1794
     39  OG1       40.3400   53.2690   25.5840 O.3   110  THR110     -0.2208
     40  CG2       42.2040   52.3880   24.3530 C.3   110  THR110      0.0378
     41  N         39.7750   46.7900   23.0020 N.3   113  HIS113     -0.1226
     42  CA        40.0460   47.0740   21.6010 C.3   113  HIS113      0.1752
     43  C         41.4850   46.6780   21.2420 C.2   113  HIS113      0.2595
     44  O         41.7070   45.9010   20.3100 O.2   113  HIS113     -0.2718
     45  CB        39.8280   48.5750   21.3440 C.3   113  HIS113      0.0759
     46  CG        40.1120   49.0080   19.9350 C.ar  113  HIS113      0.0818
     47  ND1       39.1300   49.1020   18.9710 N.ar  113  HIS113     -0.2268
     48  CD2       41.2660   49.3900   19.3350 C.ar  113  HIS113      0.1154
     49  CE1       39.6670   49.5280   17.8400 C.ar  113  HIS113      0.1986
     50  NE2       40.9610   49.7110   18.0350 N.ar  113  HIS113     -0.2212
     51  N         42.4580   47.2150   21.9820 N.am  114  GLU114     -0.1979
     52  CA        43.8650   46.9190   21.7210 C.3   114  GLU114      0.1602
     53  C         44.1980   45.4230   21.8540 C.2   114  GLU114      0.2287
     54  O         44.9420   44.8700   21.0350 O.2   114  GLU114     -0.2864
     55  CB        44.7710   47.7210   22.6580 C.3   114  GLU114      0.0415
     56  CG        44.6550   49.2290   22.5330 C.3   114  GLU114      0.1163
     57  CD        44.7980   49.7170   21.1060 C.2   114  GLU114      0.3649
     58  OE1       45.7230   49.2450   20.4120 O.co2 114  GLU114     -0.2457
     59  OE2       43.9930   50.5810   20.6840 O.co2 114  GLU114     -0.2457
     60  N         40.8850   46.1090   12.2170 N.3   123  HIS123     -0.1241
     61  CA        39.7230   46.9500   12.4490 C.3   123  HIS123      0.1621
     62  C         38.5100   46.4170   11.7060 C.2   123  HIS123      0.2264
     63  O         38.6240   45.8730   10.6060 O.2   123  HIS123     -0.2867
     64  CB        40.0240   48.3880   12.0330 C.3   123  HIS123      0.0745
     65  CG        40.8240   49.1380   13.0450 C.ar  123  HIS123      0.0817
     66  ND1       41.7150   50.1330   12.7050 N.ar  123  HIS123     -0.2268
     67  CD2       40.8720   49.0340   14.3950 C.ar  123  HIS123      0.1154
     68  CE1       42.2790   50.6080   13.8010 C.ar  123  HIS123      0.1986
     69  NE2       41.7860   49.9570   14.8400 N.ar  123  HIS123     -0.2212
     70  N         29.9920   49.3090   12.9300 N.3   127  PRO127     -0.2102
     71  CA        29.8400   50.3150   13.9950 C.3   127  PRO127      0.1504
     72  C         29.5070   49.7800   15.3850 C.2   127  PRO127      0.2576
     73  O         29.6240   50.5050   16.3710 O.2   127  PRO127     -0.2718
     74  CB        28.7290   51.2250   13.4630 C.3   127  PRO127      0.0282
     75  CG        28.8930   51.1150   11.9760 C.3   127  PRO127      0.0208
     76  CD        29.1160   49.6320   11.7900 C.3   127  PRO127      0.0893
     77  N         29.0800   48.5250   15.4620 N.am  128  LYS128     -0.1966
     78  CA        28.7430   47.9180   16.7480 C.3   128  LYS128      0.1728
     79  C         29.9210   47.1470   17.3460 C.2   128  LYS128      0.2616
     80  O         29.9180   46.8320   18.5360 O.2   128  LYS128     -0.2715
     81  CB        27.5480   46.9650   16.5950 C.3   128  LYS128      0.0311
     82  CG        26.2010   47.6480   16.3700 C.3   128  LYS128      0.0038
     83  CD        26.1840   48.4650   15.0810 C.3   128  LYS128      0.0206
     84  CE        24.9020   49.2980   14.9520 C.3   128  LYS128      0.1093
     85  NZ        24.8990   50.1500   13.7230 N.3   128  LYS128     -0.1314
     86  N         30.9250   46.8490   16.5250 N.am  129  ALA129     -0.1963
     87  CA        32.0960   46.0890   16.9690 C.3   129  ALA129      0.1728
     88  C         33.0520   46.8990   17.8290 C.2   129  ALA129      0.2616
     89  O         33.2340   48.0980   17.6120 O.2   129  ALA129     -0.2715
     90  CB        32.8480   45.5360   15.7630 C.3   129  ALA129      0.0334
     91  N         33.6700   46.2370   18.8020 N.am  130  VAL130     -0.1977
     92  CA        34.6240   46.9130   19.6670 C.3   130  VAL130      0.1596
     93  C         35.8680   47.1980   18.8420 C.2   130  VAL130      0.2287
     94  O         36.6740   48.0520   19.2030 O.2   130  VAL130     -0.2864
     95  CB        35.0100   46.0540   20.9010 C.3   130  VAL130      0.0276
     96  CG1       35.7930   44.8140   20.4690 C.3   130  VAL130      0.0022
     97  CG2       35.8240   46.8960   21.8780 C.3   130  VAL130      0.0022
     98  N         35.7510   48.4350   15.9380 N.3   132  PHE132     -0.1228
     99  CA        35.4430   49.5440   15.0400 C.3   132  PHE132      0.1721
    100  C         36.5010   50.5850   15.4220 C.2   132  PHE132      0.2437
    101  O         36.8610   50.7100   16.5940 O.2   132  PHE132     -0.2733
    102  CB        34.0280   50.0670   15.3140 C.3   132  PHE132      0.0547
    103  CG        33.5210   51.0370   14.2810 C.ar  132  PHE132     -0.0202
    104  CD1       33.3450   50.6420   12.9670 C.ar  132  PHE132     -0.0042
    105  CD2       33.2080   52.3450   14.6290 C.ar  132  PHE132     -0.0042
    106  CE1       32.8630   51.5330   12.0140 C.ar  132  PHE132     -0.0003
    107  CE2       32.7250   53.2470   13.6850 C.ar  132  PHE132     -0.0003
    108  CZ        32.5530   52.8390   12.3740 C.ar  132  PHE132     -0.0000
    109  N         37.0150   51.3410   14.4430 N.am  133  PRO133     -0.2718
    110  CA        38.0450   52.3590   14.6900 C.3   133  PRO133      0.1535
    111  C         37.7220   53.5470   15.6030 C.2   133  PRO133      0.2599
    112  O         38.6280   54.1800   16.1390 O.2   133  PRO133     -0.2715
    113  CB        38.4340   52.8040   13.2760 C.3   133  PRO133      0.0310
    114  CG        37.1800   52.6110   12.5110 C.3   133  PRO133      0.0237
    115  CD        36.6690   51.2810   13.0150 C.3   133  PRO133      0.0939
    116  N         36.4460   53.8470   15.7980 N.am  134  THR134     -0.1937
    117  CA        36.0780   54.9910   16.6280 C.3   134  THR134      0.2028
    118  C         35.7450   54.6710   18.0750 C.2   134  THR134      0.2642
    119  O         34.9080   53.8080   18.3600 O.2   134  THR134     -0.2714
    120  CB        34.8830   55.7490   16.0250 C.3   134  THR134      0.1808
    121  OG1       35.3100   56.4380   14.8450 O.3   134  THR134     -0.2208
    122  CG2       34.3340   56.7550   17.0240 C.3   134  THR134      0.0379
    123  N         36.4020   55.3890   18.9820 N.am  135  TYR135     -0.1959
    124  CA        36.1900   55.2280   20.4130 C.3   135  TYR135      0.1771
    125  C         34.8740   55.8430   20.8640 C.2   135  TYR135      0.2619
    126  O         34.4920   56.9250   20.4170 O.2   135  TYR135     -0.2715
    127  CB        37.3290   55.8870   21.2010 C.3   135  TYR135      0.0574
    128  CG        37.0620   55.9760   22.6940 C.ar  135  TYR135     -0.0198
    129  CD1       36.2540   56.9800   23.2270 C.ar  135  TYR135     -0.0009
    130  CD2       37.5680   55.0160   23.5640 C.ar  135  TYR135     -0.0009
    131  CE1       35.9570   57.0170   24.5850 C.ar  135  TYR135      0.0417
    132  CE2       37.2780   55.0430   24.9170 C.ar  135  TYR135      0.0417
    133  CZ        36.4730   56.0410   25.4240 C.ar  135  TYR135      0.1957
    134  OH        36.1830   56.0480   26.7690 O.3   135  TYR135     -0.2866
    135  N         34.1900   55.1410   21.7570 N.am  136  LYS136     -0.1977
    136  CA        32.9380   55.6170   22.3210 C.3   136  LYS136      0.1596
    137  C         32.8490   54.9650   23.6880 C.2   136  LYS136      0.2287
    138  O         33.4430   53.9120   23.9200 O.2   136  LYS136     -0.2864
    139  CB        31.7320   55.1820   21.4870 C.3   136  LYS136      0.0298
    140  CG        31.3480   53.7150   21.6080 C.3   136  LYS136      0.0038
    141  CD        30.1300   53.3950   20.7330 C.3   136  LYS136      0.0206
    142  CE        29.7280   51.9270   20.8470 C.3   136  LYS136      0.1093
    143  NZ        28.7170   51.5470   19.8240 N.3   136  LYS136     -0.1314
    144  N         30.6520   53.2040   26.7750 N.3   138  VAL138     -0.1245
    145  CA        29.4530   52.4360   27.0940 C.3   138  VAL138      0.1561
    146  C         29.7870   51.9060   28.4790 C.2   138  VAL138      0.2260
    147  O         30.9630   51.6940   28.7830 O.2   138  VAL138     -0.2867
    148  CB        29.2190   51.2520   26.1220 C.3   138  VAL138      0.0252
    149  CG1       29.1600   51.7610   24.6920 C.3   138  VAL138      0.0019
    150  CG2       30.3010   50.2030   26.2920 C.3   138  VAL138      0.0019
    151  N         28.4580   46.4200   28.6340 N.3   143  PHE143     -0.1241
    152  CA        29.2760   46.2680   27.4360 C.3   143  PHE143      0.1605
    153  C         29.3140   44.8120   26.9910 C.2   143  PHE143      0.2264
    154  O         29.3730   43.9030   27.8190 O.2   143  PHE143     -0.2867
    155  CB        30.7180   46.7210   27.6780 C.3   143  PHE143      0.0534
    156  CG        31.6540   46.3490   26.5580 C.ar  143  PHE143     -0.0203
    157  CD1       31.7140   47.1140   25.4020 C.ar  143  PHE143     -0.0042
    158  CD2       32.3960   45.1780   26.6180 C.ar  143  PHE143     -0.0042
    159  CE1       32.4910   46.7150   24.3230 C.ar  143  PHE143     -0.0003
    160  CE2       33.1740   44.7730   25.5420 C.ar  143  PHE143     -0.0003
    161  CZ        33.2200   45.5430   24.3910 C.ar  143  PHE143     -0.0000
@<TRIPOS>BOND
     1    63    62    2
     2    62    61    1
     3    76    75    1
     4    76    70    1
     5    75    74    1
     6   106   108   ar
     7   106   104   ar
     8    64    61    1
     9    64    65    1
    10    60    61    1
    11   108   107   ar
    12   114   115    1
    13   114   113    1
    14    66    65   ar
    15    66    68   ar
    16    70    71    1
    17   104   103   ar
    18   115   109    1
    19    65    67   ar
    20   113   110    1
    21    74    71    1
    22   107   105   ar
    23    85    84    1
    24    68    69   ar
    25    71    72    1
    26   103   105   ar
    27   103   102    1
    28    67    69   ar
    29   109   110    1
    30   109   100   am
    31   110   111    1
    32   121   120    1
    33    84    83    1
    34    99   102    1
    35    99   100    1
    36    99    98    1
    37    83    82    1
    38    72    77   am
    39    72    73    2
    40   100   101    2
    41    77    78    1
    42   111   116   am
    43   111   112    2
    44    12    10    1
    45    90    87    1
    46   116   117    1
    47   120   117    1
    48   120   122    1
    49    82    81    1
    50    10     9    1
    51    86    87    1
    52    86    79   am
    53    81    78    1
    54   117   118    1
    55    78    79    1
    56    87    88    1
    57    79    80    2
    58    89    88    2
    59    88    91   am
    60    49    50   ar
    61    49    47   ar
    62     9    11    1
    63     9     6    1
    64    50    48   ar
    65   118   119    2
    66   118   123   am
    67     2     3    1
    68     2     1    1
    69     5     6    1
    70     5     3   am
    71     6     7    1
    72     3     4    2
    73    91    92    1
    74    93    94    2
    75    93    92    1
    76    47    46   ar
    77   123   124    1
    78    48    46   ar
    79    24    23    2
    80    92    95    1
    81   143   142    1
    82    46    45    1
    83     7    13   am
    84     7     8    2
    85    44    43    2
    86    58    57   ar
    87   124   125    1
    88   124   127    1
    89   126   125    2
    90    96    95    1
    91    23    22    1
    92    13    14    1
    93    59    57   ar
    94   141   142    1
    95   141   140    1
    96   125   135   am
    97    95    97    1
    98    54    53    2
    99    57    56    1
   100   127   128    1
   101    43    42    1
   102    43    51   am
   103    45    42    1
   104   139   140    1
   105   139   136    1
   106    21    22    1
   107    21    15   am
   108    42    41    1
   109    52    53    1
   110    52    51    1
   111    52    55    1
   112   135   136    1
   113    22    25    1
   114    18    19    1
   115    18    17    1
   116    18    20    1
   117    14    17    1
   118    14    15    1
   119   136   137    1
   120    15    16    2
   121    56    55    1
   122   128   129   ar
   123   128   130   ar
   124   129   131   ar
   125   130   132   ar
   126   137   138    2
   127    37    36    2
   128   159   161   ar
   129   159   157   ar
   130    40    38    1
   131   161   160   ar
   132   131   133   ar
   133   149   148    1
   134    29    28    2
   135   132   133   ar
   136    35    36    1
   137    35    38    1
   138    35    34    1
   139   157   156   ar
   140   133   134    1
   141    38    39    1
   142   160   158   ar
   143    28    34   am
   144    28    27    1
   145   148   150    1
   146   148   145    1
   147    30    27    1
   148    30    31    1
   149   156   158   ar
   150   156   155    1
   151    27    26    1
   152   144   145    1
   153    33    31    1
   154   153   152    1
   155   153   154    2
   156    32    31    1
   157   145   146    1
   158   152   155    1
   159   152   151    1
   160   146   147    2
