@<TRIPOS>MOLECULE
tmp/1uu1D01.pdb
 113 106 0 0 0
SMALL
GASTEIGER

@<TRIPOS>ATOM
      1  N         21.7930   99.0530   26.8460 N.3    26  LEU26      -0.1245
      2  CA        20.8590   97.9150   26.9720 C.3    26  LEU26       0.1561
      3  C         19.5810   98.2030   27.7500 C.2    26  LEU26       0.2260
      4  O         18.8150   97.2840   28.0310 O.2    26  LEU26      -0.2867
      5  CB        21.5470   96.7010   27.6180 C.3    26  LEU26       0.0270
      6  CG        22.5610   95.9360   26.7410 C.3    26  LEU26       0.0019
      7  CD1       23.2530   94.8250   27.5360 C.3    26  LEU26       0.0001
      8  CD2       21.8360   95.3410   25.5210 C.3    26  LEU26       0.0001
      9  N         11.1070   88.3850   26.5620 N.3    86  ASP86      -0.1239
     10  CA        11.6120   87.8250   25.3130 C.3    86  ASP86       0.1674
     11  C         10.9380   86.4810   25.0380 C.2    86  ASP86       0.2266
     12  O         10.5500   86.2130   23.9030 O.2    86  ASP86      -0.2867
     13  CB        13.1230   87.5950   25.3820 C.3    86  ASP86       0.1410
     14  CG        13.9250   88.8540   25.1530 C.2    86  ASP86       0.3668
     15  OD1       13.3180   89.9410   25.0830 O.co2  86  ASP86      -0.2456
     16  OD2       15.1690   88.7550   25.0370 O.co2  86  ASP86      -0.2456
     17  N         11.8930   97.0840   18.2530 N.3   106  TYR106     -0.1227
     18  CA        12.7320   96.1690   19.0030 C.3   106  TYR106      0.1736
     19  C         13.4880   95.2710   18.0430 C.2   106  TYR106      0.2596
     20  O         12.8750   94.5190   17.2790 O.2   106  TYR106     -0.2718
     21  CB        11.8530   95.3360   19.9600 C.3   106  TYR106      0.0548
     22  CG        12.5940   94.4050   20.9020 C.ar  106  TYR106     -0.0200
     23  CD1       13.8760   94.7070   21.3700 C.ar  106  TYR106     -0.0009
     24  CD2       11.9980   93.2350   21.3550 C.ar  106  TYR106     -0.0009
     25  CE1       14.5330   93.8610   22.2660 C.ar  106  TYR106      0.0417
     26  CE2       12.6560   92.3790   22.2500 C.ar  106  TYR106      0.0417
     27  CZ        13.9110   92.6950   22.6970 C.ar  106  TYR106      0.1957
     28  OH        14.5330   91.8130   23.5590 O.3   106  TYR106     -0.2866
     29  N         14.8150   95.3670   18.0910 N.am  107  SER107     -0.1938
     30  CA        15.7100   94.6050   17.2210 C.3   107  SER107      0.2055
     31  C         15.5500   93.1010   17.3180 C.2   107  SER107      0.2643
     32  O         15.9230   92.3830   16.3900 O.2   107  SER107     -0.2714
     33  CB        17.1700   94.9030   17.5530 C.3   107  SER107      0.2130
     34  OG        17.5180   94.2190   18.7370 O.3   107  SER107     -0.2179
     35  N         15.0130   92.6230   18.4360 N.am  108  CYS108     -0.1967
     36  CA        14.8400   91.2010   18.6160 C.3   108  CYS108      0.1712
     37  C         13.5720   90.6240   18.0000 C.2   108  CYS108      0.2296
     38  O         13.4620   89.4010   17.9080 O.2   108  CYS108     -0.2864
     39  CB        14.9400   90.8240   20.1070 C.3   108  CYS108      0.0983
     40  SG        16.6470   90.9120   20.7860 S.3   108  CYS108     -0.0798
     41  N         10.6320  101.0840   21.1670 N.3   149  ASN149     -0.1240
     42  CA        12.0510  100.8180   21.3060 C.3   149  ASN149      0.1653
     43  C         12.5690  100.9740   19.8880 C.2   149  ASN149      0.2266
     44  O         12.0350  100.3650   18.9760 O.2   149  ASN149     -0.2867
     45  CB        12.2440   99.3850   21.7920 C.3   149  ASN149      0.1155
     46  CG        13.6860   98.9600   21.7740 C.2   149  ASN149      0.2627
     47  OD1       14.4710   99.4010   20.9230 O.2   149  ASN149     -0.2716
     48  ND2       14.0500   98.0730   22.7000 N.am  149  ASN149     -0.0877
     49  N          8.4330   99.0700   28.7630 N.3   176  TYR176     -0.1241
     50  CA         8.8030  100.3150   29.4440 C.3   176  TYR176      0.1605
     51  C          7.6520  101.0210   30.1280 C.2   176  TYR176      0.2264
     52  O          7.6830  102.2310   30.3090 O.2   176  TYR176     -0.2867
     53  CB         9.5090  101.2830   28.4640 C.3   176  TYR176      0.0534
     54  CG        10.7360  100.6780   27.8300 C.ar  176  TYR176     -0.0201
     55  CD1       11.9620  100.6440   28.5110 C.ar  176  TYR176     -0.0009
     56  CD2       10.6480  100.0440   26.5920 C.ar  176  TYR176     -0.0009
     57  CE1       13.0740   99.9740   27.9630 C.ar  176  TYR176      0.0417
     58  CE2       11.7370   99.3770   26.0440 C.ar  176  TYR176      0.0417
     59  CZ        12.9420   99.3410   26.7330 C.ar  176  TYR176      0.1957
     60  OH        13.9840   98.6360   26.2170 O.3   176  TYR176     -0.2866
     61  N         13.6560   96.0090   33.8010 N.3   202  LYS202     -0.1245
     62  CA        14.0400   97.4120   33.7820 C.3   202  LYS202      0.1561
     63  C         13.7910   98.1570   35.0850 C.2   202  LYS202      0.2260
     64  O         14.7290   98.6130   35.7440 O.2   202  LYS202     -0.2867
     65  CB        13.2720   98.1100   32.6540 C.3   202  LYS202      0.0271
     66  CG        13.1260   97.2960   31.3580 C.3   202  LYS202      0.0035
     67  CD        14.4300   97.1600   30.6170 C.3   202  LYS202      0.0206
     68  CE        14.2170   96.4750   29.2810 C.3   202  LYS202      0.1093
     69  NZ        15.2170   96.9150   28.2540 N.3   202  LYS202     -0.1314
     70  N         15.2270   87.0660   34.5850 N.3   210  ARG210     -0.1245
     71  CA        14.2850   86.7750   33.5330 C.3   210  ARG210      0.1563
     72  C         12.8390   86.5350   33.9800 C.2   210  ARG210      0.2260
     73  O         12.4110   85.3770   34.1160 O.2   210  ARG210     -0.2867
     74  CB        14.7750   85.5330   32.7580 C.3   210  ARG210      0.0307
     75  CG        16.2990   85.4020   32.6760 C.3   210  ARG210      0.0489
     76  CD        16.9830   86.6050   31.9420 C.3   210  ARG210      0.2205
     77  NE        16.4690   86.7490   30.5840 N.pl3 210  ARG210     -0.0865
     78  CZ        15.7460   87.7900   30.1550 C.cat 210  ARG210      0.5346
     79  NH1       15.2960   87.8350   28.8970 N.pl3 210  ARG210      0.1354
     80  NH2       15.4980   88.8050   30.9750 N.pl3 210  ARG210      0.1354
     81  N         23.7540  102.5880   22.4970 N.3   308  ARG308     -0.1245
     82  CA        23.2240  101.6620   21.5000 C.3   308  ARG308      0.1563
     83  C         23.0740  102.3400   20.1550 C.2   308  ARG308      0.2260
     84  O         22.3910  103.3630   20.0310 O.2   308  ARG308     -0.2867
     85  CB        21.8700  101.1040   21.9630 C.3   308  ARG308      0.0307
     86  CG        21.2380  100.0410   21.0530 C.3   308  ARG308      0.0489
     87  CD        22.1660   98.8570   20.7730 C.3   308  ARG308      0.2205
     88  NE        22.6080   98.1800   21.9860 N.pl3 308  ARG308     -0.0865
     89  CZ        23.3790   97.0960   21.9940 C.cat 308  ARG308      0.5346
     90  NH1       23.7980   96.5740   20.8460 N.pl3 308  ARG308      0.1354
     91  NH2       23.7310   96.5230   23.1440 N.pl3 308  ARG308      0.1354
     92  N         21.8130  102.7610   16.2850 N.3   310  PHE310     -0.1241
     93  CA        20.6820  102.4100   15.4440 C.3   310  PHE310      0.1605
     94  C         20.8140  103.0730   14.0840 C.2   310  PHE310      0.2264
     95  O         21.5630  104.0380   13.9150 O.2   310  PHE310     -0.2867
     96  CB        19.3690  102.8120   16.1140 C.3   310  PHE310      0.0534
     97  CG        18.9200  101.8450   17.1600 C.ar  310  PHE310     -0.0203
     98  CD1       18.3670  100.6170   16.7940 C.ar  310  PHE310     -0.0042
     99  CD2       19.1330  102.1080   18.5070 C.ar  310  PHE310     -0.0042
    100  CE1       18.0410   99.6590   17.7550 C.ar  310  PHE310     -0.0003
    101  CE2       18.8100  101.1530   19.4760 C.ar  310  PHE310     -0.0003
    102  CZ        18.2660   99.9270   19.0980 C.ar  310  PHE310     -0.0000
    103  N         20.7400  105.4190   21.0060 N.3   315  ARG315     -0.1245
    104  CA        19.8360  105.3090   22.1290 C.3   315  ARG315      0.1563
    105  C         20.6880  105.1820   23.3800 C.2   315  ARG315      0.2260
    106  O         21.3820  104.2010   23.5970 O.2   315  ARG315     -0.2867
    107  CB        18.8880  104.1210   21.9510 C.3   315  ARG315      0.0307
    108  CG        17.8700  104.0160   23.0650 C.3   315  ARG315      0.0489
    109  CD        18.1730  102.8020   23.8850 C.3   315  ARG315      0.2205
    110  NE        17.5790  101.6320   23.2670 N.pl3 315  ARG315     -0.0865
    111  CZ        18.0720  100.4010   23.3300 C.cat 315  ARG315      0.5346
    112  NH1       19.1950  100.1500   23.9890 N.pl3 315  ARG315      0.1354
    113  NH2       17.4220   99.4180   22.7200 N.pl3 315  ARG315      0.1354
@<TRIPOS>BOND
     1    95    94    2
     2    94    93    1
     3    93    96    1
     4    93    92    1
     5    96    97    1
     6    32    31    2
     7    98    97   ar
     8    98   100   ar
     9    97    99   ar
    10    30    31    1
    11    30    33    1
    12    30    29    1
    13    20    19    2
    14    31    35   am
    15    33    34    1
    16   100   102   ar
    17    38    37    2
    18    37    36    1
    19    19    29   am
    20    19    18    1
    21    17    18    1
    22    35    36    1
    23    99   101   ar
    24    36    39    1
    25    44    43    2
    26    18    21    1
    27   102   101   ar
    28    43    42    1
    29    21    22    1
    30    84    83    2
    31    39    40    1
    32    83    82    1
    33    87    86    1
    34    87    88    1
    35    90    89    1
    36    22    24   ar
    37    22    23   ar
    38    47    46    2
    39   103   104    1
    40    86    85    1
    41    41    42    1
    42    42    45    1
    43    24    26   ar
    44    23    25   ar
    45    82    85    1
    46    82    81    1
    47    46    45    1
    48    46    48   am
    49   107   104    1
    50   107   108    1
    51    88    89    2
    52    89    91    1
    53   104   105    1
    54    26    27   ar
    55    25    27   ar
    56    27    28    1
    57   113   111    1
    58   108   109    1
    59   110   111    2
    60   110   109    1
    61   111   112    1
    62   105   106    2
    63    12    11    2
    64    16    14   ar
    65    11    10    1
    66    15    14   ar
    67    14    13    1
    68    10    13    1
    69    10     9    1
    70     8     6    1
    71    58    56   ar
    72    58    59   ar
    73    60    59    1
    74    56    54   ar
    75    59    57   ar
    76     6     7    1
    77     6     5    1
    78     1     2    1
    79     2     5    1
    80     2     3    1
    81     3     4    2
    82    54    53    1
    83    54    55   ar
    84    57    55   ar
    85    69    68    1
    86    53    50    1
    87    49    50    1
    88    79    78    1
    89    68    67    1
    90    50    51    1
    91    51    52    2
    92    78    77    2
    93    78    80    1
    94    77    76    1
    95    67    66    1
    96    66    65    1
    97    76    75    1
    98    65    62    1
    99    75    74    1
   100    74    71    1
   101    71    72    1
   102    71    70    1
   103    62    61    1
   104    62    63    1
   105    72    73    2
   106    63    64    2
