@<TRIPOS>MOLECULE
tmp/1uu3A00.pdb
 169 157 0 0 0
SMALL
GASTEIGER

@<TRIPOS>ATOM
      1  N         26.5380   81.0460   36.1160 N.3    16  LEU16      -0.1231
      2  CA        26.6670   81.7800   34.8800 C.3    16  LEU16       0.1696
      3  C         25.3200   82.2520   34.3650 C.2    16  LEU16       0.2632
      4  O         25.1970   83.3840   33.8780 O.2    16  LEU16      -0.2714
      5  CB        27.4060   80.9420   33.8280 C.3    16  LEU16       0.0284
      6  CG        28.8720   80.6150   34.0940 C.3    16  LEU16       0.0019
      7  CD1       29.4150   79.5970   33.0650 C.3    16  LEU16       0.0001
      8  CD2       29.7080   81.8870   34.0840 C.3    16  LEU16       0.0001
      9  N         24.3190   81.3950   34.4640 N.am   17  GLY17      -0.1718
     10  CA        22.9450   81.7710   34.1480 C.2    17  GLY17       0.1480
     11  C         21.9120   80.7150   34.4210 C.2    17  GLY17       0.2820
     12  O         22.2330   79.5890   34.6580 O.2    17  GLY17      -0.2669
     13  N         20.6490   81.1350   34.4250 N.am   18  GLU18      -0.1929
     14  CA        19.5210   80.3240   34.8290 C.3    18  GLU18       0.1736
     15  C         18.5480   80.2820   33.6590 C.2    18  GLU18       0.2617
     16  O         18.2960   81.2890   33.0120 O.2    18  GLU18      -0.2715
     17  CB        18.8390   80.9330   36.0830 C.3    18  GLU18       0.0429
     18  CG        19.7220   80.8790   37.3190 C.3    18  GLU18       0.1163
     19  CD        19.2350   81.7180   38.5120 C.2    18  GLU18       0.3649
     20  OE1       19.9500   82.6520   38.9290 O.co2  18  GLU18      -0.2457
     21  OE2       18.1610   81.4040   39.0660 O.co2  18  GLU18      -0.2457
     22  N         18.0480   79.0940   33.3740 N.am   19  GLY19      -0.1955
     23  CA        16.9890   78.9130   32.4060 C.3    19  GLY19       0.1869
     24  C         15.7750   78.3110   33.0980 C.2    19  GLY19       0.2309
     25  O         15.7690   78.0780   34.3060 O.2    19  GLY19      -0.2863
     26  N         17.1330   74.5130   33.6260 N.3    22  SER22      -0.1217
     27  CA        18.5410   74.2480   33.9280 C.3    22  SER22       0.1889
     28  C         19.2130   75.4440   34.5380 C.2    22  SER22       0.2288
     29  O         18.6740   76.5400   34.5050 O.2    22  SER22      -0.2866
     30  CB        19.2420   73.9110   32.6400 C.3    22  SER22       0.2089
     31  OG        19.2330   75.0220   31.7890 O.3    22  SER22      -0.2183
     32  N         23.3790   76.8770   34.6030 N.3    24  VAL24      -0.1245
     33  CA        24.7880   76.6700   34.2070 C.3    24  VAL24       0.1561
     34  C         25.6890   77.3060   35.2640 C.2    24  VAL24       0.2260
     35  O         25.5450   78.4690   35.5670 O.2    24  VAL24      -0.2867
     36  CB        25.0440   77.2360   32.8490 C.3    24  VAL24       0.0252
     37  CG1       26.5300   77.0290   32.4380 C.3    24  VAL24       0.0019
     38  CG2       24.0950   76.6550   31.8160 C.3    24  VAL24       0.0019
     39  N         31.9960   74.8850   32.2280 N.3    37  ALA37      -0.1245
     40  CA        30.6200   75.3460   32.4440 C.3    37  ALA37       0.1562
     41  C         29.8030   74.0650   32.6030 C.2    37  ALA37       0.2260
     42  O         29.7140   73.2550   31.6840 O.2    37  ALA37      -0.2867
     43  CB        30.1510   76.2080   31.2640 C.3    37  ALA37       0.0290
     44  N         26.2220   72.4170   33.0790 N.3    39  LYS39      -0.1245
     45  CA        24.7870   72.6580   32.9750 C.3    39  LYS39       0.1561
     46  C         24.1090   71.6130   33.8210 C.2    39  LYS39       0.2260
     47  O         24.3740   70.4280   33.6560 O.2    39  LYS39      -0.2867
     48  CB        24.3310   72.5800   31.5190 C.3    39  LYS39       0.0271
     49  CG        22.8170   72.6790   31.3510 C.3    39  LYS39       0.0035
     50  CD        22.4560   72.9230   29.8840 C.3    39  LYS39       0.0206
     51  CE        20.9490   72.8880   29.6590 C.3    39  LYS39       0.1093
     52  NZ        20.6220   73.4610   28.3120 N.3    39  LYS39      -0.1314
     53  N         19.9500   67.1660   23.4080 N.3    58  GLU58      -0.1245
     54  CA        21.0750   68.0870   23.7190 C.3    58  GLU58       0.1567
     55  C         22.3630   67.2820   23.8340 C.2    58  GLU58       0.2260
     56  O         23.3860   67.5980   23.1990 O.2    58  GLU58      -0.2867
     57  CB        20.8270   68.8730   25.0030 C.3    58  GLU58       0.0388
     58  CG        21.9130   69.9060   25.2630 C.3    58  GLU58       0.1160
     59  CD        21.5500   70.8700   26.3660 C.2    58  GLU58       0.3649
     60  OE1       20.8700   70.4500   27.3370 O.co2  58  GLU58      -0.2457
     61  OE2       21.8940   72.0490   26.2330 O.co2  58  GLU58      -0.2457
     62  N         25.2250   67.2050   20.7750 N.3    62  MET62      -0.1245
     63  CA        26.5330   67.7690   21.1040 C.3    62  MET62       0.1570
     64  C         27.6130   66.7070   21.0760 C.2    62  MET62       0.2261
     65  O         28.7560   66.9930   20.7380 O.2    62  MET62      -0.2867
     66  CB        26.5270   68.4550   22.4490 C.3    62  MET62       0.0387
     67  CG        25.6270   69.7170   22.4840 C.3    62  MET62       0.0595
     68  SD        25.8810   70.6980   24.0030 S.3    62  MET62      -0.1393
     69  CE        27.4390   71.5580   23.5980 C.3    62  MET62       0.0692
     70  N         30.5230   74.7590   21.1160 N.3    71  VAL71      -0.1245
     71  CA        30.8000   74.3010   22.4580 C.3    71  VAL71       0.1561
     72  C         30.9320   72.7920   22.4760 C.2    71  VAL71       0.2260
     73  O         30.1310   72.0710   21.8830 O.2    71  VAL71      -0.2867
     74  CB        29.7070   74.7680   23.4270 C.3    71  VAL71       0.0252
     75  CG1       29.8160   74.1150   24.7890 C.3    71  VAL71       0.0019
     76  CG2       29.6900   76.2760   23.5860 C.3    71  VAL71       0.0019
     77  N         30.5840   71.2360   29.8830 N.3    87  LEU87      -0.1231
     78  CA        30.7630   71.9650   28.6300 C.3    87  LEU87       0.1693
     79  C         31.9780   72.8860   28.6400 C.2    87  LEU87       0.2593
     80  O         32.4570   73.3400   29.6750 O.2    87  LEU87      -0.2718
     81  CB        29.5310   72.8560   28.3830 C.3    87  LEU87       0.0284
     82  CG        28.1730   72.1790   28.4770 C.3    87  LEU87       0.0019
     83  CD1       27.0420   73.2200   28.5470 C.3    87  LEU87       0.0001
     84  CD2       27.9920   71.2580   27.3160 C.3    87  LEU87       0.0001
     85  N         32.4300   73.2300   27.4440 N.am   88  SER88      -0.1938
     86  CA        33.3870   74.3200   27.2900 C.3    88  SER88       0.2055
     87  C         32.8940   75.5290   28.0330 C.2    88  SER88       0.2643
     88  O         31.7270   75.9150   27.8720 O.2    88  SER88      -0.2714
     89  CB        33.5090   74.7480   25.8280 C.3    88  SER88       0.2130
     90  OG        33.8280   73.6790   24.9860 O.3    88  SER88      -0.2179
     91  N         33.7880   76.1600   28.8000 N.am   89  TYR89      -0.1959
     92  CA        33.5360   77.4900   29.3370 C.3    89  TYR89       0.1771
     93  C         33.9760   78.5670   28.3630 C.2    89  TYR89       0.2619
     94  O         35.1830   78.8040   28.2000 O.2    89  TYR89      -0.2715
     95  CB        34.2180   77.6400   30.6870 C.3    89  TYR89       0.0574
     96  CG        34.1030   79.0020   31.3120 C.ar   89  TYR89      -0.0198
     97  CD1       32.9580   79.7490   31.2040 C.ar   89  TYR89      -0.0009
     98  CD2       35.1610   79.5460   32.0600 C.ar   89  TYR89      -0.0009
     99  CE1       32.8720   81.0460   31.7930 C.ar   89  TYR89       0.0417
    100  CE2       35.0670   80.7910   32.6520 C.ar   89  TYR89       0.0417
    101  CZ        33.9400   81.5330   32.5250 C.ar   89  TYR89       0.1957
    102  OH        33.8820   82.7710   33.1390 O.3    89  TYR89      -0.2866
    103  N         33.0000   79.2040   27.7270 N.am   90  ALA90      -0.1963
    104  CA        33.2460   80.1870   26.6790 C.3    90  ALA90       0.1728
    105  C         33.4140   81.5140   27.4140 C.2    90  ALA90       0.2616
    106  O         32.4560   82.2000   27.7510 O.2    90  ALA90      -0.2715
    107  CB        32.0970   80.2000   25.6580 C.3    90  ALA90       0.0334
    108  N         34.6680   81.8320   27.7280 N.am   91  LYS91      -0.1977
    109  CA        34.9980   82.8340   28.7380 C.3    91  LYS91       0.1596
    110  C         34.5370   84.2560   28.4300 C.2    91  LYS91       0.2287
    111  O         34.3550   85.0530   29.3390 O.2    91  LYS91      -0.2864
    112  CB        36.5320   82.8340   28.9600 C.3    91  LYS91       0.0298
    113  CG        37.0960   81.5540   29.6460 C.3    91  LYS91       0.0038
    114  CD        38.6070   81.6360   30.0730 C.3    91  LYS91       0.0206
    115  CE        38.9590   80.5660   31.1670 C.3    91  LYS91       0.1093
    116  NZ        40.4470   80.4460   31.4870 N.3    91  LYS91      -0.1314
    117  N         31.6040   85.0000   26.8680 N.3    93  GLY93      -0.1210
    118  CA        30.1560   85.0810   26.9460 C.3    93  GLY93       0.1956
    119  C         29.4720   85.2740   25.6030 C.2    93  GLY93       0.2611
    120  O         29.9860   84.8340   24.5800 O.2    93  GLY93      -0.2717
    121  N         28.3050   85.9200   25.6090 N.am   94  GLU94      -0.1979
    122  CA        27.4290   85.9420   24.4200 C.3    94  GLU94       0.1602
    123  C         27.8400   86.9830   23.3990 C.2    94  GLU94       0.2287
    124  O         28.1840   88.0970   23.7540 O.2    94  GLU94      -0.2864
    125  CB        25.9760   86.2520   24.8150 C.3    94  GLU94       0.0415
    126  CG        25.3650   85.2610   25.7800 C.3    94  GLU94       0.1163
    127  CD        24.0260   85.6940   26.3280 C.2    94  GLU94       0.3649
    128  OE1       23.3820   86.6130   25.7520 O.co2  94  GLU94      -0.2457
    129  OE2       23.6200   85.0680   27.3500 O.co2  94  GLU94      -0.2457
    130  N         22.4090   85.3070   21.4300 N.3   137  GLU137     -0.1231
    131  CA        22.4750   84.7450   22.7790 C.3   137  GLU137      0.1699
    132  C         23.1610   83.3750   22.8060 C.2   137  GLU137      0.2592
    133  O         23.7340   82.9930   23.8270 O.2   137  GLU137     -0.2718
    134  CB        21.0440   84.6360   23.3380 C.3   137  GLU137      0.0402
    135  CG        20.9210   83.8880   24.6460 C.3   137  GLU137      0.1161
    136  CD        19.5000   83.8090   25.1720 C.2   137  GLU137      0.3649
    137  OE1       18.9190   84.8870   25.3490 O.co2 137  GLU137     -0.2457
    138  OE2       19.0040   82.6810   25.4090 O.co2 137  GLU137     -0.2457
    139  N         23.0340   82.6380   21.7050 N.am  138  ASN138     -0.1974
    140  CA        23.5080   81.2580   21.5950 C.3   138  ASN138      0.1688
    141  C         24.8030   81.1430   20.8070 C.2   138  ASN138      0.2292
    142  O         25.2780   80.0320   20.5800 O.2   138  ASN138     -0.2864
    143  CB        22.4410   80.3590   20.9080 C.3   138  ASN138      0.1181
    144  CG        21.3260   79.9930   21.8230 C.2   138  ASN138      0.2629
    145  OD1       21.4500   80.0590   23.0570 O.2   138  ASN138     -0.2716
    146  ND2       20.2000   79.5390   21.2260 N.am  138  ASN138     -0.0877
    147  N         28.4340   82.0210   21.4330 N.3   140  LEU140     -0.1245
    148  CA        29.3190   82.4610   22.5190 C.3   140  LEU140      0.1561
    149  C         30.6850   82.8180   21.9360 C.2   140  LEU140      0.2260
    150  O         30.9740   82.5010   20.7720 O.2   140  LEU140     -0.2867
    151  CB        29.4000   81.3820   23.5840 C.3   140  LEU140      0.0270
    152  CG        28.1080   80.7940   24.1200 C.3   140  LEU140      0.0019
    153  CD1       28.4060   79.7840   25.2330 C.3   140  LEU140      0.0001
    154  CD2       27.1850   81.9300   24.5720 C.3   140  LEU140      0.0001
    155  N         26.1490   77.1760   20.8610 N.3   150  THR150     -0.1203
    156  CA        25.5810   76.2830   21.8470 C.3   150  THR150      0.1994
    157  C         24.0590   76.1520   21.6970 C.2   150  THR150      0.2617
    158  O         23.4800   76.7190   20.7520 O.2   150  THR150     -0.2717
    159  CB        26.0340   76.7600   23.2390 C.3   150  THR150      0.1784
    160  OG1       25.8010   75.7380   24.1890 O.3   150  THR150     -0.2211
    161  CG2       25.3200   78.0260   23.6720 C.3   150  THR150      0.0376
    162  N         23.4400   75.4530   22.6530 N.am  151  ASP151     -0.1973
    163  CA        21.9720   75.3350   22.7910 C.3   151  ASP151      0.1709
    164  C         21.3570   74.4040   21.7390 C.2   151  ASP151      0.2293
    165  O         20.6360   74.8270   20.8490 O.2   151  ASP151     -0.2864
    166  CB        21.3010   76.7010   22.8070 C.3   151  ASP151      0.1436
    167  CG        19.8660   76.6570   23.3090 C.2   151  ASP151      0.3671
    168  OD1       19.4620   75.6840   23.9890 O.co2 151  ASP151     -0.2456
    169  OD2       19.0830   77.6080   23.0530 O.co2 151  ASP151     -0.2456
@<TRIPOS>BOND
     1   142   141    2
     2    65    64    2
     3   158   157    2
     4   150   149    2
     5    62    63    1
     6   141   140    1
     7   165   164    2
     8   155   156    1
     9   143   140    1
    10   143   144    1
    11    64    63    1
    12    63    66    1
    13    70    71    1
    14   146   144   am
    15   130   131    1
    16   147   148    1
    17   140   139    1
    18   157   156    1
    19   157   162   am
    20   139   132   am
    21   164   163    1
    22   144   145    2
    23   156   159    1
    24    73    72    2
    25   149   148    1
    26    66    67    1
    27    71    72    1
    28    71    74    1
    29    67    68    1
    30   148   151    1
    31   162   163    1
    32   131   132    1
    33   131   134    1
    34   163   166    1
    35   132   133    2
    36   166   167    1
    37   169   167   ar
    38    56    55    2
    39   159   161    1
    40   159   160    1
    41   167   168   ar
    42   134   135    1
    43   123   124    2
    44   123   122    1
    45    53    54    1
    46    74    76    1
    47    74    75    1
    48   151   152    1
    49    69    68    1
    50    54    55    1
    51    54    57    1
    52   152   154    1
    53   152   153    1
    54   122   125    1
    55   122   121    1
    56   120   119    2
    57   135   136    1
    58   125   126    1
    59    90    89    1
    60    57    58    1
    61   136   137   ar
    62   136   138   ar
    63    58    59    1
    64   119   121   am
    65   119   118    1
    66   107   104    1
    67   128   127   ar
    68   126   127    1
    69    89    86    1
    70    61    59   ar
    71   127   129   ar
    72    59    60   ar
    73   104   105    1
    74   104   103    1
    75   117   118    1
    76    86    85    1
    77    86    87    1
    78    84    82    1
    79   105   108   am
    80   105   106    2
    81    85    79   am
    82   103    93   am
    83   108   109    1
    84    88    87    2
    85    87    91   am
    86    94    93    2
    87    52    51    1
    88    93    92    1
    89    81    82    1
    90    81    78    1
    91   110   109    1
    92   110   111    2
    93    82    83    1
    94    78    79    1
    95    78    77    1
    96    79    80    2
    97   109   112    1
    98    91    92    1
    99   112   113    1
   100    92    95    1
   101   113   114    1
   102    51    50    1
   103    50    49    1
   104   114   115    1
   105    95    96    1
   106   115   116    1
   107    97    96   ar
   108    97    99   ar
   109    43    40    1
   110    96    98   ar
   111    49    48    1
   112    48    45    1
   113    42    41    2
   114    31    30    1
   115    99   101   ar
   116    38    36    1
   117    98   100   ar
   118    39    40    1
   119    23    24    1
   120    23    22    1
   121    37    36    1
   122    40    41    1
   123   101   100   ar
   124   101   102    1
   125    30    27    1
   126    36    33    1
   127    45    44    1
   128    45    46    1
   129    16    15    2
   130     7     6    1
   131    24    25    2
   132    22    15   am
   133    26    27    1
   134    47    46    2
   135    15    14    1
   136     5     6    1
   137     5     2    1
   138     4     3    2
   139    27    28    1
   140     8     6    1
   141    10    11    1
   142    10     9    2
   143    33    32    1
   144    33    34    1
   145     3     9    1
   146     3     2    1
   147    11    13   am
   148    11    12    2
   149    13    14    1
   150    29    28    2
   151    14    17    1
   152     2     1    1
   153    34    35    2
   154    17    18    1
   155    18    19    1
   156    19    20   ar
   157    19    21   ar
