@<TRIPOS>MOLECULE
tmp/1uu4A00.pdb
 142 139 0 0 0
SMALL
GASTEIGER

@<TRIPOS>ATOM
      1  N          6.0350   23.0220   64.2890 N.3    23  TRP23      -0.1241
      2  CA         7.0860   23.9770   63.9440 C.3    23  TRP23       0.1605
      3  C          6.6610   25.4440   63.9590 C.2    23  TRP23       0.2264
      4  O          7.5190   26.3420   64.0720 O.2    23  TRP23      -0.2867
      5  CB         7.7080   23.6050   62.5840 C.3    23  TRP23       0.0550
      6  CG         6.8170   23.7190   61.3600 C.ar   23  TRP23       0.0003
      7  CD1        6.1560   22.6960   60.7280 C.ar   23  TRP23       0.0946
      8  CD2        6.5280   24.8980   60.6030 C.ar   23  TRP23       0.0152
      9  NE1        5.4720   23.1740   59.6380 N.ar   23  TRP23      -0.2442
     10  CE2        5.6870   24.5230   59.5350 C.ar   23  TRP23       0.0810
     11  CE3        6.8900   26.2480   60.7210 C.ar   23  TRP23       0.0012
     12  CZ2        5.2140   25.4390   58.5930 C.ar   23  TRP23       0.0191
     13  CZ3        6.4150   27.1540   59.7780 C.ar   23  TRP23       0.0001
     14  CH2        5.5850   26.7450   58.7340 C.ar   23  TRP23       0.0015
     15  N         -3.3310   32.3400   58.5850 N.3    58  ASP58      -0.1225
     16  CA        -2.4980   32.0330   57.4190 C.3    58  ASP58       0.1805
     17  C         -1.1690   31.3620   57.7760 C.2    58  ASP58       0.2598
     18  O         -0.3610   31.0800   56.8930 O.2    58  ASP58      -0.2718
     19  CB        -2.1970   33.3170   56.6360 C.3    58  ASP58       0.1424
     20  CG        -3.3800   33.8170   55.8390 C.2    58  ASP58       0.3668
     21  OD1       -4.3680   33.0750   55.6580 O.co2  58  ASP58      -0.2456
     22  OD2       -3.3840   34.9590   55.3300 O.co2  58  ASP58      -0.2456
     23  N         -0.9290   31.1520   59.0670 N.am   59  ASN59      -0.1960
     24  CA         0.2980   30.5280   59.5510 C.3    59  ASN59       0.1819
     25  C          0.0600   29.0740   59.8980 C.2    59  ASN59       0.2621
     26  O         -0.7850   28.7570   60.7300 O.2    59  ASN59      -0.2715
     27  CB         0.8180   31.2330   60.8060 C.3    59  ASN59       0.1195
     28  CG         1.5230   32.5320   60.4960 C.2    59  ASN59       0.2630
     29  OD1        0.8800   33.5640   60.3610 O.2    59  ASN59      -0.2716
     30  ND2        2.8500   32.4860   60.3770 N.am   59  ASN59      -0.0877
     31  N          0.8350   28.1860   59.2920 N.am   60  VAL60      -0.1977
     32  CA         0.8490   26.7900   59.7030 C.3    60  VAL60       0.1596
     33  C          1.3760   26.7120   61.1290 C.2    60  VAL60       0.2287
     34  O          2.4040   27.3010   61.4390 O.2    60  VAL60      -0.2864
     35  CB         1.7380   25.9330   58.7640 C.3    60  VAL60       0.0276
     36  CG1        1.8910   24.5140   59.2880 C.3    60  VAL60       0.0022
     37  CG2        1.1570   25.9170   57.3660 C.3    60  VAL60       0.0022
     38  N         -9.1260   24.8620   59.1380 N.3    96  ARG96      -0.1245
     39  CA        -8.1300   25.2840   58.1590 C.3    96  ARG96       0.1563
     40  C         -6.9680   24.3220   58.2700 C.2    96  ARG96       0.2260
     41  O         -6.1920   24.3740   59.2250 O.2    96  ARG96      -0.2867
     42  CB        -7.6910   26.7320   58.3960 C.3    96  ARG96       0.0307
     43  CG        -8.7670   27.7330   57.9890 C.3    96  ARG96       0.0489
     44  CD        -8.4230   29.1750   58.3050 C.3    96  ARG96       0.2205
     45  NE        -7.2840   29.7210   57.5670 N.pl3  96  ARG96      -0.0865
     46  CZ        -7.3310   30.2200   56.3280 C.cat  96  ARG96       0.5346
     47  NH1       -8.4500   30.1660   55.6130 N.pl3  96  ARG96       0.1354
     48  NH2       -6.2320   30.7440   55.7890 N.pl3  96  ARG96       0.1354
     49  N         10.6470   22.1030   46.9780 N.3   119  GLU119     -0.1245
     50  CA         9.6380   21.3590   47.7100 C.3   119  GLU119      0.1567
     51  C          8.5710   20.9050   46.7200 C.2   119  GLU119      0.2260
     52  O          8.1100   21.6920   45.8830 O.2   119  GLU119     -0.2867
     53  CB         8.9920   22.2350   48.7830 C.3   119  GLU119      0.0388
     54  CG         7.9530   21.5110   49.6220 C.3   119  GLU119      0.1160
     55  CD         7.4090   22.3750   50.7390 C.2   119  GLU119      0.3649
     56  OE1        7.6340   23.6090   50.7120 O.co2 119  GLU119     -0.2457
     57  OE2        6.7730   21.8170   51.6610 O.co2 119  GLU119     -0.2457
     58  N          4.8460   19.1690   46.9460 N.3   121  MET121     -0.1245
     59  CA         3.7200   18.7590   47.7710 C.3   121  MET121      0.1570
     60  C          2.6280   18.1610   46.9070 C.2   121  MET121      0.2261
     61  O          2.3580   18.6500   45.7960 O.2   121  MET121     -0.2867
     62  CB         3.1370   19.9390   48.5490 C.3   121  MET121      0.0387
     63  CG         4.1320   20.7240   49.3490 C.3   121  MET121      0.0595
     64  SD         3.3250   21.8580   50.5140 S.3   121  MET121     -0.1393
     65  CE         2.9720   20.7580   51.8140 C.3   121  MET121      0.0692
     66  N         -1.2380   17.5490   47.6580 N.3   123  TRP123     -0.1241
     67  CA        -2.3270   17.7650   48.5990 C.3   123  TRP123      0.1605
     68  C         -3.4850   16.8170   48.3060 C.2   123  TRP123      0.2264
     69  O         -3.9290   16.6780   47.1700 O.2   123  TRP123     -0.2867
     70  CB        -2.8310   19.2110   48.5170 C.3   123  TRP123      0.0550
     71  CG        -1.8880   20.2760   49.0160 C.ar  123  TRP123      0.0003
     72  CD1       -0.5290   20.2970   48.9280 C.ar  123  TRP123      0.0946
     73  CD2       -2.2670   21.5060   49.6370 C.ar  123  TRP123      0.0152
     74  NE1       -0.0390   21.4580   49.4810 N.ar  123  TRP123     -0.2442
     75  CE2       -1.0860   22.2180   49.9270 C.ar  123  TRP123      0.0810
     76  CE3       -3.4980   22.0800   49.9850 C.ar  123  TRP123      0.0012
     77  CZ2       -1.0950   23.4720   50.5460 C.ar  123  TRP123      0.0191
     78  CZ3       -3.5040   23.3230   50.6040 C.ar  123  TRP123      0.0001
     79  CH2       -2.3160   24.0010   50.8780 C.ar  123  TRP123      0.0015
     80  N         -7.9000   27.5490   52.7640 N.3   130  ILE130     -0.1231
     81  CA        -6.4730   27.8040   52.7060 C.3   130  ILE130      0.1692
     82  C         -5.9430   27.7510   51.2740 C.2   130  ILE130      0.2592
     83  O         -6.5720   27.1790   50.3850 O.2   130  ILE130     -0.2718
     84  CB        -5.6730   26.8040   53.5940 C.3   130  ILE130      0.0266
     85  CG1       -5.9120   25.3480   53.1510 C.3   130  ILE130      0.0019
     86  CG2       -6.0350   26.9810   55.0620 C.3   130  ILE130      0.0020
     87  CD1       -5.0200   24.3390   53.8340 C.3   130  ILE130      0.0001
     88  N         -4.7710   28.3440   51.0860 N.am  131  TYR131     -0.1963
     89  CA        -4.0690   28.3440   49.8050 C.3   131  TYR131      0.1756
     90  C         -2.7020   27.7150   49.9890 C.2   131  TYR131      0.2461
     91  O         -2.1440   27.7880   51.0740 O.2   131  TYR131     -0.2730
     92  CB        -3.8790   29.7860   49.3170 C.3   131  TYR131      0.0574
     93  CG        -5.1790   30.4540   48.9780 C.ar  131  TYR131     -0.0198
     94  CD1       -5.7310   30.3190   47.7180 C.ar  131  TYR131     -0.0009
     95  CD2       -5.8730   31.1880   49.9210 C.ar  131  TYR131     -0.0009
     96  CE1       -6.9270   30.9150   47.4020 C.ar  131  TYR131      0.0417
     97  CE2       -7.0860   31.7830   49.6140 C.ar  131  TYR131      0.0417
     98  CZ        -7.6070   31.6350   48.3500 C.ar  131  TYR131      0.1957
     99  OH        -8.8080   32.2230   48.0080 O.3   131  TYR131     -0.2866
    100  N         -2.1490   27.1210   48.9380 N.am  132  PRO132     -0.2716
    101  CA        -0.7490   26.6940   48.9720 C.3   132  PRO132      0.1536
    102  C          0.1190   27.9210   48.7290 C.2   132  PRO132      0.2598
    103  O         -0.3910   29.0150   48.4690 O.2   132  PRO132     -0.2715
    104  CB        -0.6470   25.7250   47.7940 C.3   132  PRO132      0.0310
    105  CG        -1.6210   26.2750   46.8100 C.3   132  PRO132      0.0237
    106  CD        -2.7550   26.8790   47.6180 C.3   132  PRO132      0.0939
    107  N          1.4230   27.7260   48.7900 N.am  133  ILE133     -0.1978
    108  CA         2.3780   28.7300   48.3550 C.3   133  ILE133      0.1596
    109  C          2.1600   29.0930   46.8880 C.2   133  ILE133      0.2287
    110  O          1.9690   28.2290   46.0310 O.2   133  ILE133     -0.2864
    111  CB         3.8330   28.1900   48.5490 C.3   133  ILE133      0.0276
    112  CG1        4.2050   28.1590   50.0320 C.3   133  ILE133      0.0022
    113  CG2        4.8490   29.0060   47.7570 C.3   133  ILE133      0.0022
    114  CD1        4.4570   29.5070   50.6460 C.3   133  ILE133      0.0001
    115  N          8.9020   29.9070   48.9320 N.3   154  ASN154     -0.1240
    116  CA         8.9240   30.0330   50.3810 C.3   154  ASN154      0.1653
    117  C         10.3740   30.3490   50.7320 C.2   154  ASN154      0.2266
    118  O         11.2130   29.4640   50.7470 O.2   154  ASN154     -0.2867
    119  CB         8.4600   28.7250   51.0190 C.3   154  ASN154      0.1155
    120  CG         8.4580   28.7650   52.5450 C.2   154  ASN154      0.2627
    121  OD1        8.0700   27.7930   53.1940 O.2   154  ASN154     -0.2716
    122  ND2        8.8790   29.8830   53.1170 N.am  154  ASN154     -0.0877
    123  N         -0.9930   19.5840   57.5030 N.3   204  GLU204     -0.1245
    124  CA        -0.6400   20.9470   57.9020 C.3   204  GLU204      0.1567
    125  C         -1.8560   21.5310   58.5810 C.2   204  GLU204      0.2260
    126  O         -2.9250   21.5720   57.9880 O.2   204  GLU204     -0.2867
    127  CB        -0.2420   21.8200   56.7030 C.3   204  GLU204      0.0388
    128  CG         1.0730   21.4080   56.0510 C.3   204  GLU204      0.1160
    129  CD         1.5880   22.4510   55.0820 C.2   204  GLU204      0.3649
    130  OE1        1.0080   22.6030   53.9880 O.co2 204  GLU204     -0.2457
    131  OE2        2.5810   23.1350   55.4140 O.co2 204  GLU204     -0.2457
    132  N         -3.6640   24.7040   60.6100 N.3   206  PHE206     -0.1241
    133  CA        -3.6200   26.1650   60.7340 C.3   206  PHE206      0.1605
    134  C         -4.4850   26.6230   61.9160 C.2   206  PHE206      0.2264
    135  O         -3.9820   27.1880   62.8760 O.2   206  PHE206     -0.2867
    136  CB        -4.1280   26.8660   59.4650 C.3   206  PHE206      0.0534
    137  CG        -3.2890   26.6620   58.2250 C.ar  206  PHE206     -0.0203
    138  CD1       -3.2770   25.4450   57.5580 C.ar  206  PHE206     -0.0042
    139  CD2       -2.5740   27.7180   57.6760 C.ar  206  PHE206     -0.0042
    140  CE1       -2.5480   25.2860   56.3730 C.ar  206  PHE206     -0.0003
    141  CE2       -1.8520   27.5650   56.4930 C.ar  206  PHE206     -0.0003
    142  CZ        -1.8410   26.3460   55.8430 C.ar  206  PHE206     -0.0000
@<TRIPOS>BOND
     1    61    60    2
     2    52    51    2
     3   110   109    2
     4    51    50    1
     5   105   106    1
     6   105   104    1
     7   109   108    1
     8    60    59    1
     9    58    59    1
    10    49    50    1
    11    69    68    2
    12    96    94   ar
    13    96    98   ar
    14   106   100    1
    15    66    67    1
    16    50    53    1
    17    94    93   ar
    18   113   111    1
    19    59    62    1
    20   104   101    1
    21    99    98    1
    22    68    67    1
    23    98    97   ar
    24   108   111    1
    25   108   107    1
    26   103   102    2
    27    70    67    1
    28    70    71    1
    29   111   112    1
    30    62    63    1
    31   102   107   am
    32   102   101    1
    33    53    54    1
    34    72    71   ar
    35    72    74   ar
    36   115   116    1
    37   100   101    1
    38   100    90   am
    39    93    92    1
    40    93    95   ar
    41    71    73   ar
    42    92    89    1
    43    63    64    1
    44    74    75   ar
    45    97    95   ar
    46    54    55    1
    47    73    75   ar
    48    73    76   ar
    49    89    90    1
    50    89    88    1
    51    75    77   ar
    52    76    78   ar
    53    90    91    2
    54   112   114    1
    55   116   117    1
    56   116   119    1
    57    83    82    2
    58    64    65    1
    59    77    79   ar
    60    78    79   ar
    61    56    55   ar
    62   117   118    2
    63    55    57   ar
    64   119   120    1
    65    88    82   am
    66    82    81    1
    67   120   122   am
    68   120   121    2
    69    81    80    1
    70    81    84    1
    71    85    84    1
    72    85    87    1
    73    84    86    1
    74   130   129   ar
    75   129   131   ar
    76   129   128    1
    77    22    20   ar
    78    47    46    1
    79    21    20   ar
    80    48    46    1
    81    20    19    1
    82   142   140   ar
    83   142   141   ar
    84   128   127    1
    85    46    45    2
    86   140   138   ar
    87   141   139   ar
    88    19    16    1
    89   127   124    1
    90    18    17    2
    91    37    35    1
    92    16    17    1
    93    16    15    1
    94   123   124    1
    95   138   137   ar
    96    45    44    1
    97   139   137   ar
    98    17    23   am
    99   124   125    1
   100   126   125    2
   101    43    44    1
   102    43    42    1
   103    39    40    1
   104    39    42    1
   105    39    38    1
   106   137   136    1
   107    40    41    2
   108    12    14   ar
   109    12    10   ar
   110    14    13   ar
   111    35    36    1
   112    35    32    1
   113    23    24    1
   114    31    32    1
   115    31    25   am
   116   136   133    1
   117    10     9   ar
   118    10     8   ar
   119    24    25    1
   120    24    27    1
   121     9     7   ar
   122    32    33    1
   123    13    11   ar
   124    25    26    2
   125    29    28    2
   126    30    28   am
   127    28    27    1
   128     8    11   ar
   129     8     6   ar
   130   132   133    1
   131     7     6   ar
   132   133   134    1
   133    33    34    2
   134     6     5    1
   135   134   135    2
   136     5     2    1
   137     2     3    1
   138     2     1    1
   139     3     4    2
