@<TRIPOS>MOLECULE
tmp/1uu5A00.pdb
 208 199 0 0 0
SMALL
GASTEIGER

@<TRIPOS>ATOM
      1  N          8.0550   18.8160   69.4150 N.3     8  TYR8       -0.1241
      2  CA         8.9720   17.9190   68.6970 C.3     8  TYR8        0.1605
      3  C          9.1630   16.5410   69.3280 C.2     8  TYR8        0.2264
      4  O         10.1870   15.8750   69.1140 O.2     8  TYR8       -0.2867
      5  CB        10.3110   18.6160   68.4480 C.3     8  TYR8        0.0534
      6  CG        10.1760   19.9180   67.7140 C.ar    8  TYR8       -0.0201
      7  CD1        9.4330   20.0100   66.5400 C.ar    8  TYR8       -0.0009
      8  CD2       10.7970   21.0630   68.1790 C.ar    8  TYR8       -0.0009
      9  CE1        9.3110   21.2040   65.8630 C.ar    8  TYR8        0.0417
     10  CE2       10.6910   22.2640   67.5050 C.ar    8  TYR8        0.0417
     11  CZ         9.9480   22.3380   66.3440 C.ar    8  TYR8        0.1957
     12  OH         9.8240   23.5280   65.6810 O.3     8  TYR8       -0.2866
     13  N          9.2060   12.7980   69.4340 N.3    10  TYR10      -0.1241
     14  CA         9.7300   12.0490   68.3070 C.3    10  TYR10       0.1605
     15  C          9.7700   10.5460   68.5480 C.2    10  TYR10       0.2264
     16  O         10.0380   10.0610   69.6600 O.2    10  TYR10      -0.2867
     17  CB        11.1180   12.6020   67.9850 C.3    10  TYR10       0.0534
     18  CG        11.8420   11.9350   66.8380 C.ar   10  TYR10      -0.0201
     19  CD1       11.5600   12.2720   65.5240 C.ar   10  TYR10      -0.0009
     20  CD2       12.8070   10.9710   67.0740 C.ar   10  TYR10      -0.0009
     21  CE1       12.2320   11.6800   64.4800 C.ar   10  TYR10       0.0417
     22  CE2       13.4920   10.3670   66.0150 C.ar   10  TYR10       0.0417
     23  CZ        13.1920   10.7320   64.7220 C.ar   10  TYR10       0.1957
     24  OH        13.8410   10.1350   63.6540 O.3    10  TYR10      -0.2866
     25  N          9.6280    7.6820   60.6900 N.3    17  GLU17      -0.1245
     26  CA         9.6800    8.5160   61.8710 C.3    17  GLU17       0.1567
     27  C          8.3830    9.2940   62.0160 C.2    17  GLU17       0.2260
     28  O          7.6300    9.4460   61.0690 O.2    17  GLU17      -0.2867
     29  CB        10.8900    9.4480   61.8420 C.3    17  GLU17       0.0388
     30  CG        10.8660   10.4440   60.7020 C.3    17  GLU17       0.1160
     31  CD        12.1990   11.1650   60.4930 C.2    17  GLU17       0.3649
     32  OE1       13.2710   10.6720   60.9520 O.co2  17  GLU17      -0.2457
     33  OE2       12.1860   12.2330   59.8480 O.co2  17  GLU17      -0.2457
     34  N          6.7130   12.7940   64.1390 N.3    19  LEU19      -0.1245
     35  CA         7.1070   13.9750   64.8680 C.3    19  LEU19       0.1561
     36  C          5.9100   14.8350   65.2220 C.2    19  LEU19       0.2260
     37  O          5.0980   15.1340   64.3410 O.2    19  LEU19      -0.2867
     38  CB         8.0720   14.8060   64.0440 C.3    19  LEU19       0.0270
     39  CG         8.6740   16.0200   64.7360 C.3    19  LEU19       0.0019
     40  CD1        9.6420   15.6110   65.8530 C.3    19  LEU19       0.0001
     41  CD2        9.3840   16.9320   63.7610 C.3    19  LEU19       0.0001
     42  N          5.2770   17.9790   65.2600 N.3    21  ASN21      -0.1240
     43  CA         5.9720   19.0830   64.6310 C.3    21  ASN21       0.1653
     44  C          5.2100   20.4050   64.7500 C.2    21  ASN21       0.2266
     45  O          4.6500   20.9310   63.7760 O.2    21  ASN21      -0.2867
     46  CB         6.2050   18.6590   63.1580 C.3    21  ASN21       0.1155
     47  CG         6.8890   19.7230   62.3030 C.2    21  ASN21       0.2627
     48  OD1        6.6450   19.8010   61.0740 O.2    21  ASN21      -0.2716
     49  ND2        7.7550   20.5120   62.9030 N.am   21  ASN21      -0.0877
     50  N          5.7760   23.5130   64.6980 N.3    23  TRP23      -0.1241
     51  CA         6.8050   24.4770   64.3520 C.3    23  TRP23       0.1605
     52  C          6.3560   25.9380   64.4160 C.2    23  TRP23       0.2264
     53  O          7.1840   26.8390   64.6440 O.2    23  TRP23      -0.2867
     54  CB         7.4150   24.1530   62.9800 C.3    23  TRP23       0.0550
     55  CG         6.5180   24.2590   61.8140 C.ar   23  TRP23       0.0003
     56  CD1        5.8270   23.2360   61.2010 C.ar   23  TRP23       0.0946
     57  CD2        6.2340   25.4310   61.0630 C.ar   23  TRP23       0.0152
     58  NE1        5.1120   23.7250   60.1370 N.ar   23  TRP23      -0.2442
     59  CE2        5.3590   25.0680   60.0180 C.ar   23  TRP23       0.0810
     60  CE3        6.6370   26.7740   61.1590 C.ar   23  TRP23       0.0012
     61  CZ2        4.8790   25.9900   59.0860 C.ar   23  TRP23       0.0191
     62  CZ3        6.1580   27.6880   60.2270 C.ar   23  TRP23       0.0001
     63  CH2        5.2870   27.2950   59.2090 C.ar   23  TRP23       0.0015
     64  N          0.1740   28.7310   59.8730 N.3    60  VAL60      -0.1245
     65  CA         0.2800   27.3330   60.2640 C.3    60  VAL60       0.1561
     66  C          0.8890   27.2360   61.6700 C.2    60  VAL60       0.2260
     67  O          1.9270   27.8470   61.9490 O.2    60  VAL60      -0.2867
     68  CB         1.1670   26.5740   59.2240 C.3    60  VAL60       0.0252
     69  CG1        1.4240   25.1160   59.6490 C.3    60  VAL60       0.0019
     70  CG2        0.5230   26.5860   57.8600 C.3    60  VAL60       0.0019
     71  N          2.6880   20.9650   61.5680 N.3    63  TYR63      -0.1241
     72  CA         2.5660   19.9380   60.5280 C.3    63  TYR63       0.1605
     73  C          3.0640   18.6180   61.0990 C.2    63  TYR63       0.2264
     74  O          4.1440   18.1290   60.7230 O.2    63  TYR63      -0.2867
     75  CB         3.3580   20.3400   59.2650 C.3    63  TYR63       0.0534
     76  CG         3.3840   19.3130   58.1390 C.ar   63  TYR63      -0.0201
     77  CD1        2.2190   18.8840   57.5090 C.ar   63  TYR63      -0.0009
     78  CD2        4.5800   18.7330   57.7360 C.ar   63  TYR63      -0.0009
     79  CE1        2.2710   17.9340   56.4860 C.ar   63  TYR63       0.0417
     80  CE2        4.6240   17.7770   56.7300 C.ar   63  TYR63       0.0417
     81  CZ         3.4690   17.3850   56.1160 C.ar   63  TYR63       0.1957
     82  OH         3.5380   16.4490   55.1120 O.3    63  TYR63      -0.2866
     83  N          3.7220   14.8370   61.2390 N.3    65  TYR65      -0.1241
     84  CA         3.9120   13.9780   60.0790 C.3    65  TYR65       0.1605
     85  C          4.5000   12.6440   60.4440 C.2    65  TYR65       0.2264
     86  O          5.1130   12.4730   61.4880 O.2    65  TYR65      -0.2867
     87  CB         4.8140   14.6600   59.0200 C.3    65  TYR65       0.0534
     88  CG         6.2380   14.9740   59.4460 C.ar   65  TYR65      -0.0201
     89  CD1        7.2060   13.9710   59.5260 C.ar   65  TYR65      -0.0009
     90  CD2        6.6300   16.2800   59.7590 C.ar   65  TYR65      -0.0009
     91  CE1        8.5150   14.2690   59.9320 C.ar   65  TYR65       0.0417
     92  CE2        7.9310   16.5910   60.1420 C.ar   65  TYR65       0.0417
     93  CZ         8.8820   15.5630   60.2200 C.ar   65  TYR65       0.1957
     94  OH        10.1840   15.8070   60.6020 O.3    65  TYR65      -0.2866
     95  N          4.5800   16.1320   51.9000 N.3   102  ASP102     -0.1239
     96  CA         5.6100   17.1620   51.8320 C.3   102  ASP102      0.1674
     97  C          6.9350   16.5180   51.4650 C.2   102  ASP102      0.2266
     98  O          7.3510   15.5390   52.0780 O.2   102  ASP102     -0.2867
     99  CB         5.7450   17.8740   53.1800 C.3   102  ASP102      0.1410
    100  CG         6.2770   19.2870   53.0640 C.2   102  ASP102      0.3668
    101  OD1        6.1840   19.8930   51.9670 O.co2 102  ASP102     -0.2456
    102  OD2        6.7690   19.8970   54.0460 O.co2 102  ASP102     -0.2456
    103  N         10.9650   17.7550   50.4320 N.3   104  PHE104     -0.1241
    104  CA        11.9890   18.7720   50.1990 C.3   104  PHE104      0.1605
    105  C         13.1340   18.1640   49.4160 C.2   104  PHE104      0.2264
    106  O         13.4960   16.9930   49.6370 O.2   104  PHE104     -0.2867
    107  CB        12.5850   19.3130   51.5120 C.3   104  PHE104      0.0534
    108  CG        11.6310   20.1370   52.3580 C.ar  104  PHE104     -0.0203
    109  CD1       10.8610   21.1340   51.8080 C.ar  104  PHE104     -0.0042
    110  CD2       11.5600   19.9240   53.7210 C.ar  104  PHE104     -0.0042
    111  CE1        9.9970   21.8840   52.6020 C.ar  104  PHE104     -0.0003
    112  CE2       10.7280   20.6760   54.5230 C.ar  104  PHE104     -0.0003
    113  CZ         9.9260   21.6390   53.9640 C.ar  104  PHE104     -0.0000
    114  N         16.5630   19.0930   57.5830 N.3   113  ASN113     -0.1225
    115  CA        15.2390   18.6300   57.1770 C.3   113  ASN113      0.1785
    116  C         14.1270   19.6720   57.2680 C.2   113  ASN113      0.2597
    117  O         13.0030   19.3920   56.8550 O.2   113  ASN113     -0.2718
    118  CB        14.8750   17.3640   57.9590 C.3   113  ASN113      0.1169
    119  CG        14.3740   17.6600   59.3440 C.2   113  ASN113      0.2627
    120  OD1       14.6950   18.6910   59.9250 O.2   113  ASN113     -0.2716
    121  ND2       13.6020   16.7290   59.9010 N.am  113  ASN113     -0.0877
    122  N         14.4190   20.8670   57.7790 N.am  114  TRP114     -0.1976
    123  CA        13.4020   21.9190   57.8620 C.3   114  TRP114      0.1640
    124  C         13.0930   22.6050   56.5350 C.2   114  TRP114      0.2290
    125  O         12.2010   23.4430   56.4630 O.2   114  TRP114     -0.2864
    126  CB        13.7410   22.9740   58.9350 C.3   114  TRP114      0.0576
    127  CG        15.1480   23.5320   58.8860 C.ar  114  TRP114      0.0006
    128  CD1       16.1310   23.2990   59.7990 C.ar  114  TRP114      0.0946
    129  CD2       15.7230   24.4050   57.9000 C.ar  114  TRP114      0.0152
    130  NE1       17.2760   23.9720   59.4510 N.ar  114  TRP114     -0.2442
    131  CE2       17.0670   24.6420   58.2830 C.ar  114  TRP114      0.0810
    132  CE3       15.2440   25.0250   56.7420 C.ar  114  TRP114      0.0012
    133  CZ2       17.9270   25.4610   57.5520 C.ar  114  TRP114      0.0191
    134  CZ3       16.1110   25.8270   56.0070 C.ar  114  TRP114      0.0001
    135  CH2       17.4340   26.0370   56.4220 C.ar  114  TRP114      0.0015
    136  N         10.3250   22.4890   47.2350 N.3   119  GLU119     -0.1245
    137  CA         9.3160   21.7830   47.9710 C.3   119  GLU119      0.1567
    138  C          8.2460   21.3280   47.0030 C.2   119  GLU119      0.2260
    139  O          7.7830   22.1000   46.1780 O.2   119  GLU119     -0.2867
    140  CB         8.6720   22.6950   48.9890 C.3   119  GLU119      0.0388
    141  CG         7.6970   21.9800   49.9190 C.3   119  GLU119      0.1160
    142  CD         7.1290   22.8880   50.9790 C.2   119  GLU119      0.3649
    143  OE1        7.2690   24.1460   50.8630 O.co2 119  GLU119     -0.2457
    144  OE2        6.5450   22.3510   51.9330 O.co2 119  GLU119     -0.2457
    145  N          4.4780   19.5540   47.3090 N.3   121  MET121     -0.1245
    146  CA         3.3870   19.1170   48.1660 C.3   121  MET121      0.1570
    147  C          2.3000   18.4820   47.3340 C.2   121  MET121      0.2261
    148  O          2.0050   18.9490   46.2300 O.2   121  MET121     -0.2867
    149  CB         2.7680   20.2950   48.9330 C.3   121  MET121      0.0387
    150  CG         3.7830   21.1600   49.6550 C.3   121  MET121      0.0595
    151  SD         2.9760   22.2490   50.8500 S.3   121  MET121     -0.1393
    152  CE         2.7780   21.1300   52.2200 C.3   121  MET121      0.0692
    153  N         -1.5300   17.7870   48.1140 N.3   123  TRP123     -0.1241
    154  CA        -2.6000   17.9670   49.0860 C.3   123  TRP123      0.1605
    155  C         -3.7390   16.9960   48.8400 C.2   123  TRP123      0.2264
    156  O         -4.1280   16.7670   47.6940 O.2   123  TRP123     -0.2867
    157  CB        -3.1740   19.3790   48.9880 C.3   123  TRP123      0.0550
    158  CG        -2.2820   20.4660   49.4670 C.ar  123  TRP123      0.0003
    159  CD1       -0.9320   20.5540   49.3410 C.ar  123  TRP123      0.0946
    160  CD2       -2.7070   21.6630   50.0990 C.ar  123  TRP123      0.0152
    161  NE1       -0.4760   21.7340   49.8800 N.ar  123  TRP123     -0.2442
    162  CE2       -1.5510   22.4470   50.3430 C.ar  123  TRP123      0.0810
    163  CE3       -3.9400   22.1540   50.5180 C.ar  123  TRP123      0.0012
    164  CZ2       -1.6060   23.6740   50.9790 C.ar  123  TRP123      0.0191
    165  CZ3       -3.9900   23.3840   51.1290 C.ar  123  TRP123      0.0001
    166  CH2       -2.8360   24.1400   51.3360 C.ar  123  TRP123      0.0015
    167  N          0.7850   27.8210   49.1340 N.3   133  ILE133     -0.1245
    168  CA         1.7930   28.8100   48.7880 C.3   133  ILE133      0.1561
    169  C          1.6100   29.2380   47.3390 C.2   133  ILE133      0.2260
    170  O          1.4310   28.4040   46.4510 O.2   133  ILE133     -0.2867
    171  CB         3.2150   28.2390   48.9980 C.3   133  ILE133      0.0252
    172  CG1        3.4610   27.8700   50.4730 C.3   133  ILE133      0.0019
    173  CG2        4.2640   29.2120   48.4920 C.3   133  ILE133      0.0019
    174  CD1        3.1770   28.9620   51.4560 C.3   133  ILE133      0.0001
    175  N          8.4770   30.3670   49.1650 N.3   154  ASN154     -0.1240
    176  CA         8.4740   30.5200   50.6080 C.3   154  ASN154      0.1653
    177  C          9.9360   30.7980   50.9600 C.2   154  ASN154      0.2266
    178  O         10.7690   29.8890   51.0380 O.2   154  ASN154     -0.2867
    179  CB         7.9240   29.2290   51.2250 C.3   154  ASN154      0.1155
    180  CG         7.7210   29.3110   52.7190 C.2   154  ASN154      0.2627
    181  OD1        7.5870   28.2810   53.3840 O.2   154  ASN154     -0.2716
    182  ND2        7.7060   30.5230   53.2630 N.am  154  ASN154     -0.0877
    183  N         12.8820   29.2560   48.7150 N.3   157  MET157     -0.1245
    184  CA        12.4700   27.9230   48.2850 C.3   157  MET157      0.1570
    185  C         11.3110   27.9930   47.2890 C.2   157  MET157      0.2261
    186  O         10.3150   28.6570   47.5640 O.2   157  MET157     -0.2867
    187  CB        12.0490   27.1430   49.5330 C.3   157  MET157      0.0387
    188  CG        11.6460   25.7120   49.3090 C.3   157  MET157      0.0595
    189  SD        11.4550   24.8240   50.8980 S.3   157  MET157     -0.1393
    190  CE        10.0780   25.7600   51.6750 C.3   157  MET157      0.0692
    191  N          7.3660   12.8330   53.3860 N.3   200  GLN200     -0.1245
    192  CA         6.4320   12.8510   54.5290 C.3   200  GLN200      0.1566
    193  C          4.9840   12.9680   54.1300 C.2   200  GLN200      0.2260
    194  O          4.6710   13.5070   53.0740 O.2   200  GLN200     -0.2867
    195  CB         6.6960   14.1030   55.3820 C.3   200  GLN200      0.0367
    196  CG         8.0850   14.1740   55.9790 C.3   200  GLN200      0.0905
    197  CD         8.4980   15.5830   56.4130 C.2   200  GLN200      0.2608
    198  OE1        7.8210   16.5840   56.1190 O.2   200  GLN200     -0.2717
    199  NE2        9.6060   15.6570   57.1100 N.am  200  GLN200     -0.0878
    200  N         -1.2800   19.9750   58.0270 N.3   204  GLU204     -0.1245
    201  CA        -0.9620   21.3360   58.4550 C.3   204  GLU204      0.1567
    202  C         -2.1920   21.8350   59.1780 C.2   204  GLU204      0.2260
    203  O         -3.2860   21.8100   58.6110 O.2   204  GLU204     -0.2867
    204  CB        -0.6600   22.2880   57.3060 C.3   204  GLU204      0.0388
    205  CG         0.5520   21.9090   56.4890 C.3   204  GLU204      0.1160
    206  CD         0.9530   23.0350   55.5500 C.2   204  GLU204      0.3649
    207  OE1        1.6190   24.0010   56.0030 O.co2 204  GLU204     -0.2457
    208  OE2        0.5680   22.9820   54.3760 O.co2 204  GLU204     -0.2457
@<TRIPOS>BOND
     1   139   138    2
     2   148   147    2
     3   170   169    2
     4   138   137    1
     5   136   137    1
     6   185   186    2
     7   185   184    1
     8   145   146    1
     9   147   146    1
    10   169   168    1
    11   156   155    2
    12   137   140    1
    13   153   154    1
    14   146   149    1
    15   184   183    1
    16   184   187    1
    17   173   171    1
    18   168   171    1
    19   168   167    1
    20   155   154    1
    21   149   150    1
    22   157   154    1
    23   157   158    1
    24   140   141    1
    25   171   172    1
    26   175   176    1
    27   188   187    1
    28   188   189    1
    29   159   158   ar
    30   159   161   ar
    31   105   106    2
    32   105   104    1
    33   158   160   ar
    34   150   151    1
    35   161   162   ar
    36   141   142    1
    37   160   162   ar
    38   160   163   ar
    39   104   103    1
    40   104   107    1
    41   162   164   ar
    42   172   174    1
    43   163   165   ar
    44   176   177    1
    45   176   179    1
    46   151   152    1
    47   143   142   ar
    48   189   190    1
    49   177   178    2
    50   164   166   ar
    51   142   144   ar
    52   165   166   ar
    53   179   180    1
    54    97    96    1
    55    97    98    2
    56   107   108    1
    57   109   108   ar
    58   109   111   ar
    59    96    95    1
    60    96    99    1
    61   101   100   ar
    62   108   110   ar
    63   111   113   ar
    64   180   182   am
    65   180   181    2
    66   100    99    1
    67   100   102   ar
    68   194   193    2
    69   191   192    1
    70   110   112   ar
    71   113   112   ar
    72   193   192    1
    73   208   206   ar
    74   192   195    1
    75    82    81    1
    76   195   196    1
    77   206   207   ar
    78   206   205    1
    79   196   197    1
    80   134   135   ar
    81   134   132   ar
    82    81    79   ar
    83    81    80   ar
    84   198   197    2
    85   197   199   am
    86   135   133   ar
    87   125   124    2
    88    79    77   ar
    89   205   204    1
    90   124   123    1
    91    80    78   ar
    92   132   129   ar
    93   117   116    2
    94   115   116    1
    95   115   114    1
    96   115   118    1
    97   116   122   am
    98   204   201    1
    99    77    76   ar
   100   133   131   ar
   101    78    76   ar
   102   122   123    1
   103    70    68    1
   104   123   126    1
   105   129   131   ar
   106   129   127   ar
   107   118   119    1
   108   200   201    1
   109    76    75    1
   110   131   130   ar
   111   201   202    1
   112   203   202    2
   113   127   126    1
   114   127   128   ar
   115    87    88    1
   116    87    84    1
   117    61    63   ar
   118    61    59   ar
   119    63    62   ar
   120    68    69    1
   121    68    65    1
   122    75    72    1
   123   119   121   am
   124   119   120    2
   125    88    89   ar
   126    88    90   ar
   127   130   128   ar
   128    89    91   ar
   129    90    92   ar
   130    33    31   ar
   131    64    65    1
   132    91    93   ar
   133    59    58   ar
   134    59    57   ar
   135    84    85    1
   136    84    83    1
   137    58    56   ar
   138    92    93   ar
   139    93    94    1
   140    62    60   ar
   141    65    66    1
   142    85    86    2
   143    31    30    1
   144    31    32   ar
   145    72    73    1
   146    72    71    1
   147    25    26    1
   148    30    29    1
   149    74    73    2
   150    57    60   ar
   151    57    55   ar
   152    28    27    2
   153    48    47    2
   154    56    55   ar
   155    66    67    2
   156    55    54    1
   157    29    26    1
   158    26    27    1
   159    47    49   am
   160    47    46    1
   161    54    51    1
   162    46    43    1
   163    24    23    1
   164    41    39    1
   165    45    44    2
   166    38    39    1
   167    38    35    1
   168    34    35    1
   169    37    36    2
   170    51    52    1
   171    51    50    1
   172    52    53    2
   173    21    23   ar
   174    21    19   ar
   175    43    44    1
   176    43    42    1
   177    23    22   ar
   178    39    40    1
   179    35    36    1
   180    19    18   ar
   181    12    11    1
   182     9    11   ar
   183     9     7   ar
   184    22    20   ar
   185    11    10   ar
   186     7     6   ar
   187    18    20   ar
   188    18    17    1
   189    10     8   ar
   190     6     8   ar
   191     6     5    1
   192    17    14    1
   193    14    15    1
   194    14    13    1
   195     5     2    1
   196    15    16    2
   197     2     3    1
   198     2     1    1
   199     4     3    2
