@<TRIPOS>MOLECULE
tmp/1uu8A00.pdb
 151 140 0 0 0
SMALL
GASTEIGER

@<TRIPOS>ATOM
      1  N         26.5470   81.2240   35.9520 N.3    17  LEU17      -0.1231
      2  CA        26.7050   82.0600   34.7820 C.3    17  LEU17       0.1693
      3  C         25.3380   82.4770   34.2640 C.2    17  LEU17       0.2593
      4  O         25.1910   83.5600   33.7240 O.2    17  LEU17      -0.2718
      5  CB        27.4730   81.3260   33.6870 C.3    17  LEU17       0.0284
      6  CG        28.9300   80.9600   33.9980 C.3    17  LEU17       0.0019
      7  CD1       29.5500   80.1670   32.8520 C.3    17  LEU17       0.0001
      8  CD2       29.6990   82.2150   34.2380 C.3    17  LEU17       0.0001
      9  N         24.3350   81.6240   34.4430 N.am   18  GLY18      -0.1942
     10  CA        22.9990   81.9380   33.9760 C.3    18  GLY18       0.2014
     11  C         21.9660   80.9060   34.3890 C.2    18  GLY18       0.2638
     12  O         22.3060   79.7680   34.7340 O.2    18  GLY18      -0.2714
     13  N         20.6940   81.3060   34.3480 N.am   19  GLU19      -0.1977
     14  CA        19.5820   80.4270   34.7140 C.3    19  GLU19       0.1602
     15  C         18.4860   80.4240   33.6580 C.2    19  GLU19       0.2287
     16  O         18.0700   81.4790   33.1780 O.2    19  GLU19      -0.2864
     17  CB        18.9810   80.8640   36.0450 C.3    19  GLU19       0.0415
     18  CG        20.0100   81.4930   36.9360 C.3    19  GLU19       0.1163
     19  CD        19.5180   81.7950   38.3390 C.2    19  GLU19       0.3649
     20  OE1       20.1660   82.6410   39.0070 O.co2  19  GLU19      -0.2457
     21  OE2       18.5120   81.1840   38.7750 O.co2  19  GLU19      -0.2457
     22  N         23.3840   77.1580   34.3890 N.3    25  VAL25      -0.1245
     23  CA        24.7690   76.9490   33.9730 C.3    25  VAL25       0.1561
     24  C         25.6520   77.5640   35.0550 C.2    25  VAL25       0.2260
     25  O         25.5040   78.7390   35.3950 O.2    25  VAL25      -0.2867
     26  CB        25.0570   77.6220   32.6210 C.3    25  VAL25       0.0252
     27  CG1       26.5000   77.3930   32.2230 C.3    25  VAL25       0.0019
     28  CG2       24.1470   77.0580   31.5730 C.3    25  VAL25       0.0019
     29  N         32.0320   74.9510   32.1860 N.3    38  ALA38      -0.1245
     30  CA        30.7200   75.5540   32.4000 C.3    38  ALA38       0.1562
     31  C         29.8230   74.3250   32.5060 C.2    38  ALA38       0.2260
     32  O         29.5960   73.6410   31.5150 O.2    38  ALA38      -0.2867
     33  CB        30.3110   76.3960   31.2060 C.3    38  ALA38       0.0290
     34  N         26.2770   72.5860   32.9400 N.3    40  LYS40      -0.1245
     35  CA        24.8530   72.8630   32.8250 C.3    40  LYS40       0.1561
     36  C         24.1050   71.8450   33.6640 C.2    40  LYS40       0.2260
     37  O         24.2020   70.6370   33.4310 O.2    40  LYS40      -0.2867
     38  CB        24.4350   72.7830   31.3550 C.3    40  LYS40       0.0271
     39  CG        22.9430   72.9340   31.1260 C.3    40  LYS40       0.0035
     40  CD        22.6110   72.9910   29.6530 C.3    40  LYS40       0.0206
     41  CE        21.1070   72.9810   29.4340 C.3    40  LYS40       0.1093
     42  NZ        20.7470   73.2740   28.0100 N.3    40  LYS40      -0.1314
     43  N         19.7120   67.3410   22.9140 N.3    59  GLU59      -0.1245
     44  CA        20.7940   68.2660   23.1580 C.3    59  GLU59       0.1567
     45  C         22.0980   67.5140   23.3960 C.2    59  GLU59       0.2260
     46  O         23.1710   67.9250   22.9200 O.2    59  GLU59      -0.2867
     47  CB        20.4740   69.1440   24.3710 C.3    59  GLU59       0.0388
     48  CG        21.7010   69.7800   25.0370 C.3    59  GLU59       0.1160
     49  CD        21.3480   70.9040   26.0120 C.2    59  GLU59       0.3649
     50  OE1       20.4050   70.7210   26.8150 O.co2  59  GLU59      -0.2457
     51  OE2       22.0160   71.9670   25.9800 O.co2  59  GLU59      -0.2457
     52  N         30.5670   74.8570   20.9920 N.3    72  VAL72      -0.1245
     53  CA        30.8870   74.5290   22.3650 C.3    72  VAL72       0.1561
     54  C         31.0220   73.0220   22.4240 C.2    72  VAL72       0.2260
     55  O         30.2270   72.2950   21.8450 O.2    72  VAL72      -0.2867
     56  CB        29.7760   74.9870   23.3160 C.3    72  VAL72       0.0252
     57  CG1       29.9100   74.2900   24.6540 C.3    72  VAL72       0.0019
     58  CG2       29.8730   76.4970   23.5070 C.3    72  VAL72       0.0019
     59  N         30.6550   71.5650   29.8310 N.3    88  LEU88      -0.1231
     60  CA        30.8210   72.2990   28.5850 C.3    88  LEU88       0.1693
     61  C         32.0370   73.2370   28.5380 C.2    88  LEU88       0.2593
     62  O         32.5660   73.6370   29.5700 O.2    88  LEU88      -0.2718
     63  CB        29.5530   73.1190   28.3320 C.3    88  LEU88       0.0284
     64  CG        28.2330   72.3500   28.2450 C.3    88  LEU88       0.0019
     65  CD1       27.0600   73.3210   28.1620 C.3    88  LEU88       0.0001
     66  CD2       28.2600   71.4570   27.0130 C.3    88  LEU88       0.0001
     67  N         32.4800   73.5940   27.3350 N.am   89  SER89      -0.1938
     68  CA        33.5770   74.5330   27.2340 C.3    89  SER89       0.2055
     69  C         33.0610   75.8000   27.8890 C.2    89  SER89       0.2643
     70  O         31.8890   76.1180   27.8110 O.2    89  SER89      -0.2714
     71  CB        33.8860   74.8790   25.7920 C.3    89  SER89       0.2130
     72  OG        33.5670   73.8010   24.9610 O.3    89  SER89      -0.2179
     73  N         33.9520   76.5290   28.5310 N.am   90  TYR90      -0.1959
     74  CA        33.5870   77.7740   29.1530 C.3    90  TYR90       0.1771
     75  C         34.1610   78.8720   28.2680 C.2    90  TYR90       0.2619
     76  O         35.3730   79.1120   28.2550 O.2    90  TYR90      -0.2715
     77  CB        34.1830   77.8400   30.5420 C.3    90  TYR90       0.0574
     78  CG        34.1910   79.2170   31.1170 C.ar   90  TYR90      -0.0198
     79  CD1       33.0500   80.0360   31.0600 C.ar   90  TYR90      -0.0009
     80  CD2       35.3280   79.7060   31.7500 C.ar   90  TYR90      -0.0009
     81  CE1       33.0500   81.3220   31.6320 C.ar   90  TYR90       0.0417
     82  CE2       35.3400   80.9780   32.3220 C.ar   90  TYR90       0.0417
     83  CZ        34.2040   81.7850   32.2640 C.ar   90  TYR90       0.1957
     84  OH        34.2600   83.0320   32.8470 O.3    90  TYR90      -0.2866
     85  N         33.2800   79.5140   27.5100 N.am   91  ALA91      -0.1977
     86  CA        33.6600   80.5870   26.6170 C.3    91  ALA91       0.1597
     87  C         33.8520   81.8080   27.4900 C.2    91  ALA91       0.2287
     88  O         32.8840   82.4020   27.9190 O.2    91  ALA91      -0.2864
     89  CB        32.5650   80.8240   25.6270 C.3    91  ALA91       0.0319
     90  N         31.9680   85.7200   26.9500 N.3    94  GLY94      -0.1210
     91  CA        30.5410   85.9200   26.8490 C.3    94  GLY94       0.1956
     92  C         29.8800   85.6170   25.5290 C.2    94  GLY94       0.2611
     93  O         30.2450   84.6750   24.8460 O.2    94  GLY94      -0.2717
     94  N         28.8890   86.4240   25.1750 N.am   95  GLU95      -0.1979
     95  CA        28.1410   86.2440   23.9420 C.3    95  GLU95       0.1602
     96  C         28.2870   87.4000   22.9830 C.2    95  GLU95       0.2287
     97  O         28.6320   88.5130   23.3580 O.2    95  GLU95      -0.2864
     98  CB        26.6660   86.0370   24.2540 C.3    95  GLU95       0.0415
     99  CG        26.1080   87.0090   25.2510 C.3    95  GLU95       0.1163
    100  CD        24.7880   86.5230   25.8290 C.2    95  GLU95       0.3649
    101  OE1       24.7340   85.3770   26.3450 O.co2  95  GLU95      -0.2457
    102  OE2       23.8000   87.2850   25.7710 O.co2  95  GLU95      -0.2457
    103  N         21.0990   82.8680   17.3120 N.3   136  LYS136     -0.1245
    104  CA        21.0550   84.2920   17.6800 C.3   136  LYS136      0.1561
    105  C         22.3450   84.6970   18.3750 C.2   136  LYS136      0.2260
    106  O         23.0940   83.8420   18.8350 O.2   136  LYS136     -0.2867
    107  CB        19.8560   84.5980   18.5780 C.3   136  LYS136      0.0271
    108  CG        19.6740   83.6320   19.6990 C.3   136  LYS136      0.0035
    109  CD        18.4150   83.9160   20.4730 C.3   136  LYS136      0.0206
    110  CE        18.3360   82.9630   21.6490 C.3   136  LYS136      0.1093
    111  NZ        17.1270   83.1450   22.4900 N.3   136  LYS136     -0.1314
    112  N         22.9520   85.6950   21.2400 N.3   138  GLU138     -0.1231
    113  CA        23.0580   85.2340   22.6290 C.3   138  GLU138      0.1699
    114  C         23.5990   83.8060   22.6740 C.2   138  GLU138      0.2592
    115  O         24.1960   83.3930   23.6600 O.2   138  GLU138     -0.2718
    116  CB        21.6970   85.2600   23.3380 C.3   138  GLU138      0.0402
    117  CG        21.0610   86.6460   23.4520 C.3   138  GLU138      0.1161
    118  CD        20.0990   87.0080   22.2800 C.2   138  GLU138      0.3649
    119  OE1       20.5140   86.9990   21.0810 O.co2 138  GLU138     -0.2457
    120  OE2       18.9100   87.3090   22.5870 O.co2 138  GLU138     -0.2457
    121  N         23.3720   83.0620   21.5900 N.am  139  ASN139     -0.1974
    122  CA        23.7950   81.6740   21.4410 C.3   139  ASN139      0.1688
    123  C         25.1210   81.5280   20.7320 C.2   139  ASN139      0.2292
    124  O         25.5490   80.4000   20.4520 O.2   139  ASN139     -0.2864
    125  CB        22.7640   80.9150   20.6290 C.3   139  ASN139      0.1181
    126  CG        21.6470   80.4410   21.4530 C.2   139  ASN139      0.2629
    127  OD1       21.7240   80.4450   22.6680 O.2   139  ASN139     -0.2716
    128  ND2       20.5690   80.0330   20.8030 N.am  139  ASN139     -0.0877
    129  N         28.6890   82.3520   21.4290 N.3   141  LEU141     -0.1245
    130  CA        29.6890   82.7660   22.3930 C.3   141  LEU141      0.1561
    131  C         30.9940   83.1380   21.7390 C.2   141  LEU141      0.2260
    132  O         31.1910   82.8890   20.5610 O.2   141  LEU141     -0.2867
    133  CB        29.9210   81.6330   23.3910 C.3   141  LEU141      0.0270
    134  CG        28.6270   80.9570   23.8510 C.3   141  LEU141      0.0019
    135  CD1       28.8920   80.0820   25.0580 C.3   141  LEU141      0.0001
    136  CD2       27.5930   82.0090   24.1840 C.3   141  LEU141      0.0001
    137  N         26.4530   77.5960   20.8960 N.3   151  THR151     -0.1203
    138  CA        25.8650   76.6930   21.8770 C.3   151  THR151      0.1994
    139  C         24.3320   76.6540   21.8300 C.2   151  THR151      0.2617
    140  O         23.7170   77.1050   20.8530 O.2   151  THR151     -0.2717
    141  CB        26.3020   77.0680   23.2880 C.3   151  THR151      0.1784
    142  OG1       25.7880   76.0990   24.2030 O.3   151  THR151     -0.2211
    143  CG2       25.8040   78.4630   23.6690 C.3   151  THR151      0.0376
    144  N         23.7330   76.0930   22.8830 N.am  152  ASP152     -0.1973
    145  CA        22.2850   75.9500   23.0330 C.3   152  ASP152      0.1709
    146  C         21.6930   75.0580   21.9560 C.2   152  ASP152      0.2293
    147  O         20.9880   75.5350   21.0650 O.2   152  ASP152     -0.2864
    148  CB        21.6130   77.3200   22.9970 C.3   152  ASP152      0.1436
    149  CG        20.1350   77.2530   23.3530 C.2   152  ASP152      0.3671
    150  OD1       19.7460   76.3420   24.1310 O.co2 152  ASP152     -0.2456
    151  OD2       19.3630   78.1180   22.8750 O.co2 152  ASP152     -0.2456
@<TRIPOS>BOND
     1   103   104    1
     2   104   105    1
     3   104   107    1
     4   105   106    2
     5   107   108    1
     6   108   109    1
     7   124   123    2
     8   109   110    1
     9   132   131    2
    10   125   122    1
    11   125   126    1
    12   123   122    1
    13   128   126   am
    14   140   139    2
    15   137   138    1
    16    52    53    1
    17   147   146    2
    18   119   118   ar
    19   112   113    1
    20   129   130    1
    21   122   121    1
    22   126   127    2
    23   121   114   am
    24   110   111    1
    25   131   130    1
    26   139   138    1
    27   139   144   am
    28    55    54    2
    29   138   141    1
    30   146   145    1
    31   118   120   ar
    32   118   117    1
    33    53    54    1
    34    53    56    1
    35   130   133    1
    36   113   114    1
    37   113   116    1
    38   114   115    2
    39   151   149   ar
    40   144   145    1
    41    43    44    1
    42    46    45    2
    43    96    97    2
    44    96    95    1
    45   148   145    1
    46   148   149    1
    47    44    45    1
    48    44    47    1
    49   141   143    1
    50   141   142    1
    51    56    58    1
    52    56    57    1
    53   116   117    1
    54   149   150   ar
    55   133   134    1
    56   134   136    1
    57   134   135    1
    58    95    98    1
    59    95    94    1
    60    98    99    1
    61    47    48    1
    62    93    92    2
    63    72    71    1
    64    48    49    1
    65    94    92   am
    66    99   100    1
    67    92    91    1
    68    89    86    1
    69   102   100   ar
    70    71    68    1
    71   100   101   ar
    72    51    49   ar
    73    49    50   ar
    74    86    87    1
    75    86    85    1
    76    91    90    1
    77    66    64    1
    78    68    67    1
    79    68    69    1
    80    67    61   am
    81    87    88    2
    82    85    75   am
    83    70    69    2
    84    69    73   am
    85    42    41    1
    86    65    64    1
    87    64    63    1
    88    76    75    2
    89    75    74    1
    90    63    60    1
    91    73    74    1
    92    61    60    1
    93    61    62    2
    94    60    59    1
    95    74    77    1
    96    41    40    1
    97    40    39    1
    98    77    78    1
    99    79    78   ar
   100    79    81   ar
   101    78    80   ar
   102    39    38    1
   103    33    30    1
   104    38    35    1
   105    32    31    2
   106    28    26    1
   107    81    83   ar
   108    80    82   ar
   109    29    30    1
   110    27    26    1
   111    83    82   ar
   112    83    84    1
   113    30    31    1
   114    26    23    1
   115    35    34    1
   116    35    36    1
   117     7     6    1
   118    16    15    2
   119    37    36    2
   120    15    14    1
   121     5     6    1
   122     5     2    1
   123     4     3    2
   124    23    22    1
   125    23    24    1
   126    10    11    1
   127    10     9    1
   128     6     8    1
   129     3     9   am
   130     3     2    1
   131    13    11   am
   132    13    14    1
   133    11    12    2
   134    14    17    1
   135     2     1    1
   136    24    25    2
   137    17    18    1
   138    18    19    1
   139    19    21   ar
   140    19    20   ar
