@<TRIPOS>MOLECULE
tmp/1uu9A00.pdb
 150 138 0 0 0
SMALL
GASTEIGER

@<TRIPOS>ATOM
      1  N         26.2620   80.9650   35.9270 N.3    17  LEU17      -0.1231
      2  CA        26.4230   81.7910   34.7380 C.3    17  LEU17       0.1693
      3  C         25.0410   82.2450   34.2940 C.2    17  LEU17       0.2592
      4  O         24.8460   83.4110   33.9440 O.2    17  LEU17      -0.2718
      5  CB        27.1010   81.0020   33.6140 C.3    17  LEU17       0.0284
      6  CG        28.5870   80.7070   33.8830 C.3    17  LEU17       0.0019
      7  CD1       29.1800   79.8210   32.7720 C.3    17  LEU17       0.0001
      8  CD2       29.3230   82.0240   33.9730 C.3    17  LEU17       0.0001
      9  N         24.0750   81.3290   34.3140 N.am   18  GLY18      -0.1957
     10  CA        22.7340   81.6840   33.9080 C.3    18  GLY18       0.1869
     11  C         21.7180   80.6500   34.3340 C.2    18  GLY18       0.2309
     12  O         22.0770   79.5050   34.6200 O.2    18  GLY18      -0.2863
     13  N         23.2800   76.8650   34.3980 N.3    25  VAL25      -0.1245
     14  CA        24.6680   76.6690   33.9940 C.3    25  VAL25       0.1561
     15  C         25.5310   77.2950   35.0890 C.2    25  VAL25       0.2260
     16  O         25.3570   78.4790   35.4340 O.2    25  VAL25      -0.2867
     17  CB        24.9820   77.3200   32.6140 C.3    25  VAL25       0.0252
     18  CG1       26.4670   77.0630   32.2530 C.3    25  VAL25       0.0019
     19  CG2       24.0750   76.7150   31.5300 C.3    25  VAL25       0.0019
     20  N         31.8750   74.7850   32.1580 N.3    38  ALA38      -0.1245
     21  CA        30.5640   75.4080   32.3390 C.3    38  ALA38       0.1562
     22  C         29.7030   74.1450   32.4730 C.2    38  ALA38       0.2260
     23  O         29.5750   73.3610   31.5270 O.2    38  ALA38      -0.2867
     24  CB        30.1680   76.1990   31.1030 C.3    38  ALA38       0.0290
     25  N         26.1510   72.4150   32.9330 N.3    40  LYS40      -0.1245
     26  CA        24.7100   72.6070   32.8210 C.3    40  LYS40       0.1561
     27  C         24.0760   71.5390   33.7090 C.2    40  LYS40       0.2260
     28  O         24.3420   70.3450   33.5560 O.2    40  LYS40      -0.2867
     29  CB        24.2740   72.4550   31.3590 C.3    40  LYS40       0.0271
     30  CG        22.7600   72.5800   31.1500 C.3    40  LYS40       0.0035
     31  CD        22.4170   72.8240   29.6830 C.3    40  LYS40       0.0206
     32  CE        20.9130   72.7610   29.4360 C.3    40  LYS40       0.1093
     33  NZ        20.5640   73.3730   28.1110 N.3    40  LYS40      -0.1314
     34  N         19.7910   67.1690   23.2170 N.3    59  GLU59      -0.1245
     35  CA        20.9060   68.0600   23.5040 C.3    59  GLU59       0.1567
     36  C         22.2040   67.2690   23.6600 C.2    59  GLU59       0.2260
     37  O         23.2300   67.6060   23.0430 O.2    59  GLU59      -0.2867
     38  CB        20.6440   68.8970   24.7650 C.3    59  GLU59       0.0388
     39  CG        21.8200   69.8080   25.1650 C.3    59  GLU59       0.1160
     40  CD        21.4630   70.7990   26.2730 C.2    59  GLU59       0.3649
     41  OE1       20.8420   70.3780   27.2710 O.co2  59  GLU59      -0.2457
     42  OE2       21.8080   71.9950   26.1540 O.co2  59  GLU59      -0.2457
     43  N         25.2160   67.1410   20.6890 N.3    63  MET63      -0.1245
     44  CA        26.5180   67.6490   21.0950 C.3    63  MET63       0.1570
     45  C         27.6090   66.5830   21.0570 C.2    63  MET63       0.2261
     46  O         28.7700   66.8900   20.7620 O.2    63  MET63      -0.2867
     47  CB        26.4230   68.3150   22.4710 C.3    63  MET63       0.0387
     48  CG        25.6450   69.6470   22.4220 C.3    63  MET63       0.0595
     49  SD        25.8270   70.6890   23.9110 S.3    63  MET63      -0.1393
     50  CE        27.3180   71.6310   23.4320 C.3    63  MET63       0.0692
     51  N         30.4720   74.6190   20.9530 N.3    72  VAL72      -0.1245
     52  CA        30.7990   74.3000   22.3440 C.3    72  VAL72       0.1561
     53  C         30.9370   72.7660   22.4040 C.2    72  VAL72       0.2260
     54  O         30.1350   72.0370   21.8030 O.2    72  VAL72      -0.2867
     55  CB        29.6580   74.7520   23.2880 C.3    72  VAL72       0.0252
     56  CG1       29.7910   74.0840   24.6830 C.3    72  VAL72       0.0019
     57  CG2       29.6830   76.2900   23.4170 C.3    72  VAL72       0.0019
     58  N         30.5710   71.2500   29.8320 N.3    88  LEU88      -0.1231
     59  CA        30.7560   71.9550   28.5720 C.3    88  LEU88       0.1693
     60  C         31.9240   72.9150   28.5680 C.2    88  LEU88       0.2593
     61  O         32.4280   73.2960   29.6230 O.2    88  LEU88      -0.2718
     62  CB        29.5080   72.7910   28.2440 C.3    88  LEU88       0.0284
     63  CG        28.1380   72.0990   28.3580 C.3    88  LEU88       0.0019
     64  CD1       27.0440   73.1450   28.3320 C.3    88  LEU88       0.0001
     65  CD2       27.9540   71.1040   27.2190 C.3    88  LEU88       0.0001
     66  N         32.3260   73.3230   27.3630 N.am   89  SER89      -0.1938
     67  CA        33.3920   74.3140   27.2140 C.3    89  SER89       0.2055
     68  C         32.9390   75.5580   27.9570 C.2    89  SER89       0.2643
     69  O         31.7580   75.9300   27.9150 O.2    89  SER89      -0.2714
     70  CB        33.5650   74.7870   25.7530 C.3    89  SER89       0.2130
     71  OG        33.7730   73.7300   24.8630 O.3    89  SER89      -0.2179
     72  N         33.8760   76.2110   28.6270 N.am   90  TYR90      -0.1959
     73  CA        33.5450   77.4610   29.2770 C.3    90  TYR90       0.1771
     74  C         34.0570   78.5720   28.3550 C.2    90  TYR90       0.2619
     75  O         35.2700   78.7800   28.2150 O.2    90  TYR90      -0.2715
     76  CB        34.2000   77.5440   30.6510 C.3    90  TYR90       0.0574
     77  CG        34.1280   78.9220   31.2410 C.ar   90  TYR90      -0.0198
     78  CD1       32.9480   79.6700   31.1750 C.ar   90  TYR90      -0.0009
     79  CD2       35.2360   79.4830   31.8600 C.ar   90  TYR90      -0.0009
     80  CE1       32.8740   80.9390   31.7070 C.ar   90  TYR90       0.0417
     81  CE2       35.1710   80.7610   32.4100 C.ar   90  TYR90       0.0417
     82  CZ        33.9910   81.4780   32.3290 C.ar   90  TYR90       0.1957
     83  OH        33.9260   82.7230   32.8980 O.3    90  TYR90      -0.2866
     84  N         33.1320   79.2540   27.6900 N.am   91  ALA91      -0.1977
     85  CA        33.4730   80.3400   26.7770 C.3    91  ALA91       0.1597
     86  C         33.6800   81.6080   27.6110 C.2    91  ALA91       0.2287
     87  O         32.7280   82.2440   28.0480 O.2    91  ALA91      -0.2864
     88  CB        32.3480   80.5380   25.7400 C.3    91  ALA91       0.0319
     89  N         31.9110   85.3110   26.9380 N.3    94  GLY94      -0.1210
     90  CA        30.4630   85.4150   26.8850 C.3    94  GLY94       0.1956
     91  C         29.8100   85.2680   25.5190 C.2    94  GLY94       0.2611
     92  O         30.3130   84.5820   24.6560 O.2    94  GLY94      -0.2717
     93  N         28.6890   85.9490   25.3190 N.am   95  GLU95      -0.1979
     94  CA        27.9580   85.8430   24.0600 C.3    95  GLU95       0.1602
     95  C         28.0880   87.0440   23.1360 C.2    95  GLU95       0.2287
     96  O         28.4290   88.1490   23.5520 O.2    95  GLU95      -0.2864
     97  CB        26.4790   85.5680   24.3520 C.3    95  GLU95       0.0415
     98  CG        25.8310   86.5830   25.2890 C.3    95  GLU95       0.1163
     99  CD        24.5310   86.0710   25.9450 C.2    95  GLU95       0.3649
    100  OE1       24.5040   84.9410   26.5110 O.co2  95  GLU95      -0.2457
    101  OE2       23.5200   86.8080   25.9120 O.co2  95  GLU95      -0.2457
    102  N         26.1070   90.3340   23.8010 N.3    98  LYS98      -0.1245
    103  CA        26.7760   91.2620   24.7040 C.3    98  LYS98       0.1561
    104  C         27.7420   92.1470   23.9400 C.2    98  LYS98       0.2260
    105  O         27.8080   93.3630   24.1440 O.2    98  LYS98      -0.2867
    106  CB        27.5250   90.4970   25.8000 C.3    98  LYS98       0.0271
    107  CG        26.6600   90.2350   27.0230 C.3    98  LYS98       0.0035
    108  CD        26.5220   88.7470   27.3860 C.3    98  LYS98       0.0206
    109  CE        27.8360   88.1030   27.8620 C.3    98  LYS98       0.1093
    110  NZ        27.6230   86.7430   28.4680 N.3    98  LYS98      -0.1314
    111  N         22.6740   85.4660   21.2060 N.3   138  GLU138     -0.1231
    112  CA        22.7530   84.9630   22.5810 C.3   138  GLU138      0.1699
    113  C         23.3360   83.5260   22.6650 C.2   138  GLU138      0.2592
    114  O         23.9730   83.1630   23.6530 O.2   138  GLU138     -0.2718
    115  CB        21.3490   85.0090   23.1970 C.3   138  GLU138      0.0402
    116  CG        21.1600   84.3330   24.5550 C.3   138  GLU138      0.1161
    117  CD        19.7600   84.6440   25.1210 C.2   138  GLU138      0.3649
    118  OE1       19.4920   85.8540   25.3290 O.co2 138  GLU138     -0.2457
    119  OE2       18.9300   83.7120   25.3250 O.co2 138  GLU138     -0.2457
    120  N         23.1270   82.7370   21.6120 N.am  139  ASN139     -0.1974
    121  CA        23.5870   81.3440   21.5370 C.3   139  ASN139      0.1688
    122  C         24.9180   81.1800   20.8170 C.2   139  ASN139      0.2292
    123  O         25.3560   80.0460   20.5960 O.2   139  ASN139     -0.2864
    124  CB        22.5490   80.4710   20.8020 C.3   139  ASN139      0.1181
    125  CG        21.3220   80.1920   21.6350 C.2   139  ASN139      0.2629
    126  OD1       21.3490   80.3170   22.8700 O.2   139  ASN139     -0.2716
    127  ND2       20.2220   79.8330   20.9720 N.am  139  ASN139     -0.0877
    128  N         28.5840   81.9550   21.3720 N.3   141  LEU141     -0.1245
    129  CA        29.5330   82.3960   22.3780 C.3   141  LEU141      0.1561
    130  C         30.8810   82.7950   21.7890 C.2   141  LEU141      0.2260
    131  O         31.1860   82.4850   20.6330 O.2   141  LEU141     -0.2867
    132  CB        29.7160   81.2860   23.4230 C.3   141  LEU141      0.0270
    133  CG        28.4050   80.6340   23.8910 C.3   141  LEU141      0.0019
    134  CD1       28.7450   79.6220   24.9930 C.3   141  LEU141      0.0001
    135  CD2       27.3960   81.6830   24.4110 C.3   141  LEU141      0.0001
    136  N         26.2550   77.2280   20.8200 N.3   151  THR151     -0.1203
    137  CA        25.7250   76.3140   21.8270 C.3   151  THR151      0.1994
    138  C         24.1930   76.2660   21.7790 C.2   151  THR151      0.2617
    139  O         23.5930   76.7700   20.8270 O.2   151  THR151     -0.2717
    140  CB        26.2120   76.7520   23.2540 C.3   151  THR151      0.1784
    141  OG1       25.8010   75.7750   24.2230 O.3   151  THR151     -0.2211
    142  CG2       25.6540   78.1230   23.6240 C.3   151  THR151      0.0376
    143  N         23.5820   75.6400   22.7930 N.am  152  ASP152     -0.1973
    144  CA        22.1220   75.4940   22.9350 C.3   152  ASP152      0.1709
    145  C         21.4980   74.5690   21.9030 C.2   152  ASP152      0.2293
    146  O         20.7750   75.0280   21.0010 O.2   152  ASP152     -0.2864
    147  CB        21.4470   76.8700   22.8770 C.3   152  ASP152      0.1436
    148  CG        19.9910   76.8370   23.3740 C.2   152  ASP152      0.3671
    149  OD1       19.5690   75.8180   23.9590 O.co2 152  ASP152     -0.2456
    150  OD2       19.2790   77.8340   23.1750 O.co2 152  ASP152     -0.2456
@<TRIPOS>BOND
     1   123   122    2
     2   131   130    2
     3    43    44    1
     4    46    45    2
     5   124   121    1
     6   124   125    1
     7   122   121    1
     8   136   137    1
     9   139   138    2
    10    51    52    1
    11   127   125   am
    12   146   145    2
    13    45    44    1
    14    44    47    1
    15   111   112    1
    16   128   129    1
    17   121   120    1
    18   120   113   am
    19   125   126    2
    20   138   137    1
    21   138   143   am
    22   130   129    1
    23    54    53    2
    24   137   140    1
    25   145   144    1
    26    52    53    1
    27    52    55    1
    28   129   132    1
    29    48    47    1
    30    48    49    1
    31   112   113    1
    32   112   115    1
    33   113   114    2
    34   143   144    1
    35   147   144    1
    36   147   148    1
    37    37    36    2
    38    95    96    2
    39    95    94    1
    40   150   148   ar
    41   115   116    1
    42    34    35    1
    43   140   142    1
    44   140   141    1
    45    55    57    1
    46    55    56    1
    47   148   149   ar
    48   132   133    1
    49    50    49    1
    50    35    36    1
    51    35    38    1
    52   102   103    1
    53   133   135    1
    54   133   134    1
    55   104   105    2
    56   104   103    1
    57    94    97    1
    58    94    93    1
    59    97    98    1
    60   116   117    1
    61    92    91    2
    62   103   106    1
    63    38    39    1
    64    71    70    1
    65   117   119   ar
    66   117   118   ar
    67    39    40    1
    68    98    99    1
    69    93    91   am
    70    91    90    1
    71    88    85    1
    72    70    67    1
    73   106   107    1
    74   101    99   ar
    75    99   100   ar
    76    42    40   ar
    77    40    41   ar
    78    85    86    1
    79    85    84    1
    80    90    89    1
    81   107   108    1
    82    67    66    1
    83    67    68    1
    84    65    63    1
    85    66    60   am
    86   108   109    1
    87    86    87    2
    88    84    74   am
    89   109   110    1
    90    69    68    2
    91    68    72   am
    92    33    32    1
    93    75    74    2
    94    62    63    1
    95    62    59    1
    96    64    63    1
    97    74    73    1
    98    60    59    1
    99    60    61    2
   100    59    58    1
   101    72    73    1
   102    73    76    1
   103    32    31    1
   104    31    30    1
   105    76    77    1
   106    24    21    1
   107    30    29    1
   108    78    77   ar
   109    78    80   ar
   110    77    79   ar
   111    29    26    1
   112    23    22    2
   113    19    17    1
   114    80    82   ar
   115    79    81   ar
   116    20    21    1
   117    18    17    1
   118    82    81   ar
   119    82    83    1
   120    21    22    1
   121    17    14    1
   122     7     6    1
   123    26    25    1
   124    26    27    1
   125    28    27    2
   126     5     6    1
   127     5     2    1
   128     6     8    1
   129    10     9    1
   130    10    11    1
   131     4     3    2
   132    14    13    1
   133    14    15    1
   134     3     9   am
   135     3     2    1
   136    11    12    2
   137     2     1    1
   138    15    16    2
