@<TRIPOS>MOLECULE
tmp/1uumA02.pdb
 197 189 0 0 0
SMALL
GASTEIGER

@<TRIPOS>ATOM
      1  N         70.6620   48.7530  150.0790 N.3     2  ALA2       -0.1231
      2  CA        71.2400   49.0350  148.7660 C.3     2  ALA2        0.1694
      3  C         72.5840   48.3250  148.6350 C.2     2  ALA2        0.2591
      4  O         72.7180   47.3690  147.8660 O.2     2  ALA2       -0.2718
      5  CB        71.4190   50.5390  148.5850 C.3     2  ALA2        0.0304
      6  N         73.5790   48.7980  149.3810 N.am    3  GLU3       -0.1979
      7  CA        74.8900   48.1660  149.3610 C.3     3  GLU3        0.1602
      8  C         74.6800   46.8110  150.0070 C.2     3  GLU3        0.2287
      9  O         73.6050   46.5530  150.5470 O.2     3  GLU3       -0.2864
     10  CB        75.9010   48.9970  150.1540 C.3     3  GLU3        0.0415
     11  CG        75.3680   49.5670  151.4600 C.3     3  GLU3        0.1163
     12  CD        76.3500   50.5240  152.1100 C.2     3  GLU3        0.3649
     13  OE1       77.4340   50.0680  152.5420 O.co2   3  GLU3       -0.2457
     14  OE2       76.0390   51.7360  152.1790 O.co2   3  GLU3       -0.2457
     15  N         73.3370   44.7980  146.4660 N.3     6  MET6       -0.1231
     16  CA        73.7340   45.1410  145.1070 C.3     6  MET6        0.1687
     17  C         75.0610   44.5030  144.6880 C.2     6  MET6        0.2434
     18  O         75.2000   44.0370  143.5590 O.2     6  MET6       -0.2733
     19  CB        73.8090   46.6590  144.9540 C.3     6  MET6        0.0400
     20  CG        73.5340   47.1370  143.5470 C.3     6  MET6        0.0596
     21  SD        71.9900   46.4890  142.9050 S.3     6  MET6       -0.1393
     22  CE        70.8440   47.1260  144.1220 C.3     6  MET6        0.0692
     23  N         76.0620   44.4860  145.5840 N.am    7  PRO7       -0.2729
     24  CA        77.3310   43.8690  145.1860 C.3     7  PRO7        0.1401
     25  C         77.1190   42.3980  144.8290 C.2     7  PRO7        0.2269
     26  O         77.7540   41.8670  143.9150 O.2     7  PRO7       -0.2865
     27  CB        78.2010   44.0470  146.4260 C.3     7  PRO7        0.0296
     28  CG        77.6990   45.3450  146.9940 C.3     7  PRO7        0.0237
     29  CD        76.1990   45.1790  146.8780 C.3     7  PRO7        0.0939
     30  N         75.2850   41.9080  141.3740 N.3    10  GLN10      -0.1245
     31  CA        76.2200   42.1620  140.2880 C.3    10  GLN10       0.1566
     32  C         76.9170   40.8810  139.8390 C.2    10  GLN10       0.2260
     33  O         77.0010   40.5800  138.6480 O.2    10  GLN10      -0.2867
     34  CB        77.2830   43.1700  140.7260 C.3    10  GLN10       0.0367
     35  CG        78.3280   43.4340  139.6530 C.3    10  GLN10       0.0905
     36  CD        79.4780   44.3140  140.1250 C.2    10  GLN10       0.2608
     37  OE1       80.1980   44.8940  139.3110 O.2    10  GLN10      -0.2717
     38  NE2       79.6630   44.4050  141.4410 N.am   10  GLN10      -0.0878
     39  N         76.8710   40.9930  132.5060 N.3    15  PRO15      -0.2116
     40  CA        77.1400   42.4370  132.4840 C.3    15  PRO15       0.1372
     41  C         76.0380   43.3660  131.9640 C.2    15  PRO15       0.2244
     42  O         75.8290   44.4390  132.5320 O.2    15  PRO15      -0.2868
     43  CB        78.4550   42.5430  131.6900 C.3    15  PRO15       0.0268
     44  CG        78.4840   41.2780  130.8630 C.3    15  PRO15       0.0207
     45  CD        77.9280   40.2400  131.8050 C.3    15  PRO15       0.0892
     46  N         73.3070   43.5610  134.5470 N.3    18  ALA18      -0.1231
     47  CA        73.8430   44.3110  135.6810 C.3    18  ALA18       0.1694
     48  C         73.8260   45.8070  135.3640 C.2    18  ALA18       0.2592
     49  O         73.5850   46.6390  136.2410 O.2    18  ALA18      -0.2718
     50  CB        75.2590   43.8480  135.9900 C.3    18  ALA18       0.0304
     51  N         74.0690   46.1360  134.1010 N.am   19  HIS19      -0.1976
     52  CA        74.0600   47.5200  133.6400 C.3    19  HIS19       0.1656
     53  C         72.6630   48.1160  133.7990 C.2    19  HIS19       0.2291
     54  O         72.4890   49.1680  134.4130 O.2    19  HIS19      -0.2864
     55  CB        74.4760   47.5790  132.1690 C.3    19  HIS19       0.0771
     56  CG        74.4260   48.9540  131.5800 C.ar   19  HIS19       0.0820
     57  ND1       74.4730   50.0950  132.3510 N.ar   19  HIS19      -0.2267
     58  CD2       74.4050   49.3710  130.2930 C.ar   19  HIS19       0.1154
     59  CE1       74.4820   51.1560  131.5650 C.ar   19  HIS19       0.1986
     60  NE2       74.4420   50.7430  130.3110 N.ar   19  HIS19      -0.2212
     61  N         70.1470   47.0660  135.6210 N.3    21  LEU21      -0.1231
     62  CA        69.7070   47.1000  137.0150 C.3    21  LEU21       0.1693
     63  C         70.3450   48.3000  137.7100 C.2    21  LEU21       0.2591
     64  O         69.7040   48.9720  138.5080 O.2    21  LEU21      -0.2718
     65  CB        70.1000   45.8080  137.7480 C.3    21  LEU21       0.0284
     66  CG        69.7550   45.7130  139.2440 C.3    21  LEU21       0.0019
     67  CD1       68.2330   45.7560  139.4380 C.3    21  LEU21       0.0001
     68  CD2       70.3190   44.4160  139.8270 C.3    21  LEU21       0.0001
     69  N         71.6100   48.5670  137.4000 N.am   22  ALA22      -0.1980
     70  CA        72.3200   49.6890  138.0020 C.3    22  ALA22       0.1597
     71  C         71.6280   50.9990  137.6450 C.2    22  ALA22       0.2287
     72  O         71.4640   51.8660  138.4910 O.2    22  ALA22      -0.2864
     73  CB        73.7820   49.7090  137.5310 C.3    22  ALA22       0.0319
     74  N         68.3520   51.0400  139.7250 N.3    25  VAL25      -0.1245
     75  CA        68.6310   51.3000  141.1280 C.3    25  VAL25       0.1561
     76  C         69.0100   52.7670  141.3520 C.2    25  VAL25       0.2260
     77  O         68.5560   53.3930  142.3110 O.2    25  VAL25      -0.2867
     78  CB        69.7660   50.3830  141.6370 C.3    25  VAL25       0.0252
     79  CG1       70.2970   50.8780  142.9720 C.3    25  VAL25       0.0019
     80  CG2       69.2420   48.9690  141.7910 C.3    25  VAL25       0.0019
     81  N         70.5170   54.1640  146.1730 N.3    31  LEU31      -0.1231
     82  CA        71.8740   54.2290  146.7030 C.3    31  LEU31       0.1678
     83  C         72.0080   55.4250  147.6390 C.2    31  LEU31       0.2434
     84  O         71.3810   56.4660  147.4280 O.2    31  LEU31      -0.2733
     85  CB        72.8940   54.3570  145.5680 C.3    31  LEU31       0.0284
     86  CG        72.7450   53.4000  144.3850 C.3    31  LEU31       0.0019
     87  CD1       71.5730   53.8590  143.5330 C.3    31  LEU31       0.0001
     88  CD2       74.0220   53.3820  143.5520 C.3    31  LEU31       0.0001
     89  N         72.8290   55.2880  148.6930 N.am   32  PRO32      -0.2729
     90  CA        73.0280   56.3770  149.6530 C.3    32  PRO32       0.1401
     91  C         73.5840   57.6310  148.9850 C.2    32  PRO32       0.2269
     92  O         74.4610   57.5560  148.1210 O.2    32  PRO32      -0.2865
     93  CB        74.0070   55.7750  150.6600 C.3    32  PRO32       0.0296
     94  CG        73.6840   54.3110  150.6100 C.3    32  PRO32       0.0237
     95  CD        73.5490   54.0780  149.1240 C.3    32  PRO32       0.0939
     96  N         76.5410   55.2480  130.3170 N.3    61  PHE61      -0.1241
     97  CA        76.0020   54.5780  131.4950 C.3    61  PHE61       0.1605
     98  C         74.5090   54.8210  131.4610 C.2    61  PHE61       0.2264
     99  O         73.7160   53.8880  131.4510 O.2    61  PHE61      -0.2867
    100  CB        76.5770   55.1340  132.7990 C.3    61  PHE61       0.0534
    101  CG        75.9290   54.5430  134.0260 C.ar   61  PHE61      -0.0203
    102  CD1       76.1830   53.2200  134.3930 C.ar   61  PHE61      -0.0042
    103  CD2       74.9880   55.2760  134.7510 C.ar   61  PHE61      -0.0042
    104  CE1       75.5000   52.6310  135.4660 C.ar   61  PHE61      -0.0003
    105  CE2       74.2990   54.7000  135.8220 C.ar   61  PHE61      -0.0003
    106  CZ        74.5520   53.3750  136.1810 C.ar   61  PHE61      -0.0000
    107  N         78.2180   42.7580  125.6700 N.3    97  VAL97      -0.1245
    108  CA        78.9340   43.3700  126.7890 C.3    97  VAL97       0.1561
    109  C         79.6800   42.2620  127.5150 C.2    97  VAL97       0.2260
    110  O         79.1020   41.2250  127.8190 O.2    97  VAL97      -0.2867
    111  CB        77.9950   44.0580  127.7960 C.3    97  VAL97       0.0252
    112  CG1       78.8200   44.9300  128.7310 C.3    97  VAL97       0.0019
    113  CG2       76.9490   44.8830  127.0690 C.3    97  VAL97       0.0019
    114  N         82.8030   41.3180  130.6340 N.3    99  ARG99      -0.1245
    115  CA        83.6700   41.7200  131.7350 C.3    99  ARG99       0.1563
    116  C         85.0000   40.9970  131.6300 C.2    99  ARG99       0.2260
    117  O         85.0420   39.8160  131.2920 O.2    99  ARG99      -0.2867
    118  CB        83.0640   41.3310  133.0810 C.3    99  ARG99       0.0307
    119  CG        81.8040   42.0450  133.4770 C.3    99  ARG99       0.0489
    120  CD        81.2730   41.4290  134.7580 C.3    99  ARG99       0.2205
    121  NE        80.0830   42.1130  135.2500 N.pl3  99  ARG99      -0.0865
    122  CZ        78.9840   41.4910  135.6570 C.cat  99  ARG99       0.5346
    123  NH1       78.9180   40.1680  135.6270 N.pl3  99  ARG99       0.1354
    124  NH2       77.9540   42.1910  136.1020 N.pl3  99  ARG99       0.1354
    125  N         86.2860   46.1920  130.4930 N.3   106  VAL106     -0.1245
    126  CA        85.0380   45.7700  129.8970 C.3   106  VAL106      0.1561
    127  C         85.1720   45.9520  128.3880 C.2   106  VAL106      0.2260
    128  O         85.9180   46.8100  127.9180 O.2   106  VAL106     -0.2867
    129  CB        83.8400   46.6140  130.4040 C.3   106  VAL106      0.0252
    130  CG1       82.6090   46.3420  129.5430 C.3   106  VAL106      0.0019
    131  CG2       83.5450   46.2700  131.8640 C.3   106  VAL106      0.0019
    132  N         82.6430   46.2930  125.0100 N.3   108  ASN108     -0.1240
    133  CA        81.2540   46.3940  124.6030 C.3   108  ASN108      0.1653
    134  C         81.0930   46.7030  123.1280 C.2   108  ASN108      0.2266
    135  O         81.9440   47.3370  122.5140 O.2   108  ASN108     -0.2867
    136  CB        80.5120   47.4650  125.4070 C.3   108  ASN108      0.1155
    137  CG        80.7070   48.8550  124.8410 C.2   108  ASN108      0.2627
    138  OD1       81.6800   49.5490  125.1690 O.2   108  ASN108     -0.2716
    139  ND2       79.7870   49.2710  123.9760 N.am  108  ASN108     -0.0877
    140  N         77.6760   47.5210  122.0840 N.3   110  TYR110     -0.1241
    141  CA        76.2580   47.8010  122.2420 C.3   110  TYR110      0.1605
    142  C         75.6710   48.2130  120.9040 C.2   110  TYR110      0.2264
    143  O         74.6190   47.7240  120.5120 O.2   110  TYR110     -0.2867
    144  CB        76.0440   48.9180  123.2640 C.3   110  TYR110      0.0534
    145  CG        75.6190   48.4390  124.6330 C.ar  110  TYR110     -0.0201
    146  CD1       76.3380   48.7990  125.7760 C.ar  110  TYR110     -0.0009
    147  CD2       74.4710   47.6640  124.7950 C.ar  110  TYR110     -0.0009
    148  CE1       75.9200   48.4040  127.0500 C.ar  110  TYR110      0.0417
    149  CE2       74.0440   47.2660  126.0610 C.ar  110  TYR110      0.0417
    150  CZ        74.7710   47.6410  127.1850 C.ar  110  TYR110      0.1957
    151  OH        74.3370   47.2660  128.4370 O.3   110  TYR110     -0.2866
    152  N         83.6880   55.5930  134.0130 N.3   310  TYR310     -0.1241
    153  CA        82.5360   54.7420  133.8170 C.3   310  TYR310      0.1605
    154  C         82.8640   53.3500  134.3470 C.2   310  TYR310      0.2264
    155  O         82.3170   52.9270  135.3640 O.2   310  TYR310     -0.2867
    156  CB        82.1910   54.6970  132.3250 C.3   310  TYR310      0.0534
    157  CG        80.9820   53.8730  131.9450 C.ar  310  TYR310     -0.0201
    158  CD1       80.3890   54.0360  130.6960 C.ar  310  TYR310     -0.0009
    159  CD2       80.4440   52.9150  132.8080 C.ar  310  TYR310     -0.0009
    160  CE1       79.2980   53.2760  130.3120 C.ar  310  TYR310      0.0417
    161  CE2       79.3540   52.1430  132.4300 C.ar  310  TYR310      0.0417
    162  CZ        78.7850   52.3330  131.1760 C.ar  310  TYR310      0.1957
    163  OH        77.7040   51.5890  130.7730 O.3   310  TYR310     -0.2866
    164  N         83.3550   52.3130  138.0500 N.3   313  LEU313     -0.1231
    165  CA        82.1260   52.1910  138.8210 C.3   313  LEU313      0.1693
    166  C         81.7180   50.7200  138.8680 C.2   313  LEU313      0.2591
    167  O         81.1880   50.2360  139.8690 O.2   313  LEU313     -0.2718
    168  CB        81.0280   53.0230  138.1580 C.3   313  LEU313      0.0284
    169  CG        79.7310   53.2910  138.9220 C.3   313  LEU313      0.0019
    170  CD1       80.0410   54.0020  140.2450 C.3   313  LEU313      0.0001
    171  CD2       78.8040   54.1460  138.0470 C.3   313  LEU313      0.0001
    172  N         81.9940   50.0100  137.7790 N.am  314  ILE314     -0.1980
    173  CA        81.6630   48.5960  137.6630 C.3   314  ILE314      0.1595
    174  C         82.5150   47.6900  138.5480 C.2   314  ILE314      0.2287
    175  O         82.0160   46.7200  139.1120 O.2   314  ILE314     -0.2864
    176  CB        81.8260   48.1180  136.2070 C.3   314  ILE314      0.0276
    177  CG1       80.8270   48.8450  135.3060 C.3   314  ILE314      0.0022
    178  CG2       81.6680   46.6030  136.1290 C.3   314  ILE314      0.0022
    179  CD1       81.1290   48.6860  133.8280 C.3   314  ILE314      0.0001
    180  N         82.4590   49.9380  142.3770 N.3   317  GLY317     -0.1210
    181  CA        81.1780   50.3420  142.9230 C.3   317  GLY317      0.1940
    182  C         81.0610   51.8440  143.1020 C.2   317  GLY317      0.2454
    183  O         82.0300   52.5760  142.8870 O.2   317  GLY317     -0.2732
    184  N         79.8750   52.3340  143.4950 N.am  318  PRO318     -0.2718
    185  CA        79.5650   53.7500  143.7240 C.3   318  PRO318      0.1520
    186  C         80.5330   54.4850  144.6510 C.2   318  PRO318      0.2440
    187  O         80.6920   55.7030  144.5520 O.2   318  PRO318     -0.2731
    188  CB        78.1560   53.7010  144.2990 C.3   318  PRO318      0.0310
    189  CG        77.5610   52.5490  143.5720 C.3   318  PRO318      0.0237
    190  CD        78.6620   51.5140  143.6490 C.3   318  PRO318      0.0939
    191  N         81.1730   53.7640  145.5840 N.am  319  PRO319     -0.2727
    192  CA        82.1010   54.4700  146.4690 C.3   319  PRO319      0.1402
    193  C         83.2710   55.0890  145.7060 C.2   319  PRO319      0.2269
    194  O         83.9600   55.9640  146.2250 O.2   319  PRO319     -0.2865
    195  CB        82.5670   53.3720  147.4240 C.3   319  PRO319      0.0296
    196  CG        81.3770   52.4650  147.4950 C.3   319  PRO319      0.0237
    197  CD        80.9590   52.3800  146.0470 C.3   319  PRO319      0.0939
@<TRIPOS>BOND
     1   143   142    2
     2   142   141    1
     3   140   141    1
     4   141   144    1
     5   135   134    2
     6   134   133    1
     7   144   145    1
     8   139   137   am
     9   133   132    1
    10   133   136    1
    11   145   147   ar
    12   145   146   ar
    13   147   149   ar
    14   137   138    2
    15   137   136    1
    16   107   108    1
    17   146   148   ar
    18   149   150   ar
    19   108   109    1
    20   108   111    1
    21   148   150   ar
    22   113   111    1
    23   150   151    1
    24   109   110    2
    25   111   112    1
    26   128   127    2
    27   127   126    1
    28   130   129    1
    29   126   129    1
    30   126   125    1
    31    58    60   ar
    32    58    56   ar
    33    60    59   ar
    34   160   158   ar
    35   160   162   ar
    36    96    97    1
    37   129   131    1
    38   114   115    1
    39   158   157   ar
    40   163   162    1
    41    44    43    1
    42    44    45    1
    43   162   161   ar
    44   117   116    2
    45    99    98    2
    46    98    97    1
    47    97   100    1
    48    59    57   ar
    49    56    55    1
    50    56    57   ar
    51   116   115    1
    52    43    40    1
    53   115   118    1
    54    45    39    1
    55   157   156    1
    56   157   159   ar
    57    41    40    1
    58    41    42    2
    59    55    52    1
    60   156   153    1
    61   161   159   ar
    62    40    39    1
    63   100   101    1
    64   118   119    1
    65   119   120    1
    66    52    53    1
    67    52    51    1
    68    53    54    2
    69   153   152    1
    70   153   154    1
    71   179   177    1
    72   101   102   ar
    73   101   103   ar
    74    51    48   am
    75   154   155    2
    76   102   104   ar
    77    46    47    1
    78   103   105   ar
    79   120   121    1
    80   121   122    2
    81   177   176    1
    82    48    47    1
    83    48    49    2
    84   104   106   ar
    85    61    62    1
    86   123   122    1
    87   122   124    1
    88    47    50    1
    89   105   106   ar
    90   178   176    1
    91   176   173    1
    92    62    63    1
    93    62    65    1
    94    69    63   am
    95    69    70    1
    96    73    70    1
    97    71    70    1
    98    71    72    2
    99   173   172    1
   100   173   174    1
   101    63    64    2
   102    65    66    1
   103   172   166   am
   104   171   169    1
   105   164   165    1
   106   168   165    1
   107   168   169    1
   108   174   175    2
   109    33    32    2
   110   165   166    1
   111   166   167    2
   112   169   170    1
   113    66    67    1
   114    66    68    1
   115    37    36    2
   116    35    36    1
   117    35    34    1
   118    74    75    1
   119    32    31    1
   120    36    38   am
   121    31    34    1
   122    31    30    1
   123    75    76    1
   124    75    78    1
   125    76    77    2
   126    78    80    1
   127    78    79    1
   128   180   181    1
   129   183   182    2
   130    21    20    1
   131    21    22    1
   132   181   182    1
   133   182   184   am
   134   184   190    1
   135   184   185    1
   136    87    86    1
   137    20    19    1
   138    88    86    1
   139    18    17    2
   140   189   190    1
   141   189   188    1
   142   185   188    1
   143   185   186    1
   144    26    25    2
   145    86    85    1
   146   187   186    2
   147   186   191   am
   148    17    16    1
   149    17    23   am
   150    25    24    1
   151    19    16    1
   152    16    15    1
   153    24    23    1
   154    24    27    1
   155    85    82    1
   156    23    29    1
   157   191   197    1
   158   191   192    1
   159   193   194    2
   160   193   192    1
   161   197   196    1
   162    81    82    1
   163    27    28    1
   164   192   195    1
   165    82    83    1
   166    29    28    1
   167   195   196    1
   168    84    83    2
   169    83    89   am
   170     4     3    2
   171    92    91    2
   172     5     2    1
   173     3     2    1
   174     3     6   am
   175    89    95    1
   176    89    90    1
   177     2     1    1
   178    91    90    1
   179    95    94    1
   180     7     6    1
   181     7     8    1
   182     7    10    1
   183    90    93    1
   184     8     9    2
   185    10    11    1
   186    94    93    1
   187    11    12    1
   188    12    14   ar
   189    12    13   ar
