@<TRIPOS>MOLECULE
tmp/1uumA03.pdb
 88 81 0 0 0
SMALL
GASTEIGER

@<TRIPOS>ATOM
      1  N         73.5580   44.1060  149.2140 N.3     5  LEU5       -0.1245
      2  CA        72.7470   43.3180  148.2900 C.3     5  LEU5        0.1561
      3  C         73.1850   43.5350  146.8480 C.2     5  LEU5        0.2260
      4  O         73.3880   42.5790  146.1000 O.2     5  LEU5       -0.2867
      5  CB        71.2640   43.6750  148.4160 C.3     5  LEU5        0.0270
      6  CG        70.4090   42.7550  149.2930 C.3     5  LEU5        0.0019
      7  CD1       68.9510   43.1910  149.2220 C.3     5  LEU5        0.0001
      8  CD2       70.5530   41.3130  148.8180 C.3     5  LEU5        0.0001
      9  N         74.1660   40.8730  143.7320 N.3     9  LEU9       -0.1245
     10  CA        73.4280   40.7970  142.4770 C.3     9  LEU9        0.1561
     11  C         74.3460   40.9720  141.2730 C.2     9  LEU9        0.2260
     12  O         74.2080   40.2680  140.2730 O.2     9  LEU9       -0.2867
     13  CB        72.3290   41.8620  142.4520 C.3     9  LEU9        0.0270
     14  CG        71.2210   41.6550  143.4870 C.3     9  LEU9        0.0019
     15  CD1       70.2630   42.8310  143.4730 C.3     9  LEU9        0.0001
     16  CD2       70.4960   40.3590  143.1820 C.3     9  LEU9        0.0001
     17  N         74.7750   38.3130  137.8760 N.3    13  LEU13      -0.1231
     18  CA        74.1970   38.7410  136.6080 C.3    13  LEU13       0.1693
     19  C         75.1880   38.9040  135.4730 C.2    13  LEU13       0.2592
     20  O         76.3690   39.1310  135.7070 O.2    13  LEU13      -0.2718
     21  CB        73.4720   40.0760  136.8020 C.3    13  LEU13       0.0284
     22  CG        72.2000   40.1270  137.6510 C.3    13  LEU13       0.0019
     23  CD1       71.7240   41.5660  137.7580 C.3    13  LEU13       0.0001
     24  CD2       71.1220   39.2660  137.0150 C.3    13  LEU13       0.0001
     25  N         74.7000   38.7810  134.2390 N.am   14  ASP14      -0.1974
     26  CA        75.5480   38.9960  133.0670 C.3    14  ASP14       0.1709
     27  C         75.7530   40.5140  133.0680 C.2    14  ASP14       0.2293
     28  O         74.9020   41.2600  133.5710 O.2    14  ASP14      -0.2864
     29  CB        74.8320   38.5740  131.7820 C.3    14  ASP14       0.1436
     30  CG        73.5210   39.3000  131.5870 C.2    14  ASP14       0.3671
     31  OD1       72.5880   39.0330  132.3630 O.co2  14  ASP14      -0.2456
     32  OD2       73.4230   40.1400  130.6710 O.co2  14  ASP14      -0.2456
     33  N         75.3250   42.9840  130.9070 N.3    16  GLU16      -0.1231
     34  CA        74.2730   43.8680  130.4100 C.3    16  GLU16       0.1699
     35  C         73.1220   43.9800  131.4090 C.2    16  GLU16       0.2592
     36  O         72.6290   45.0810  131.6730 O.2    16  GLU16      -0.2718
     37  CB        73.7280   43.4150  129.0480 C.3    16  GLU16       0.0402
     38  CG        72.5970   44.3380  128.5370 C.3    16  GLU16       0.1161
     39  CD        72.3020   44.1890  127.0520 C.2    16  GLU16       0.3649
     40  OE1       71.3180   44.7990  126.5790 O.co2  16  GLU16      -0.2457
     41  OE2       73.0520   43.4730  126.3540 O.co2  16  GLU16      -0.2457
     42  N         72.6870   42.8470  131.9530 N.am   17  SER17      -0.1952
     43  CA        71.6160   42.8500  132.9480 C.3    17  SER17       0.1924
     44  C         72.0450   43.7010  134.1500 C.2    17  SER17       0.2314
     45  O         71.2500   44.4640  134.6990 O.2    17  SER17      -0.2863
     46  CB        71.3220   41.4270  133.4230 C.3    17  SER17       0.2116
     47  OG        70.8220   40.6340  132.3640 O.3    17  SER17      -0.2180
     48  N         71.6680   47.4340  133.2450 N.3    20  ARG20      -0.1231
     49  CA        70.2880   47.9040  133.3220 C.3    20  ARG20       0.1694
     50  C         69.7620   48.0040  134.7580 C.2    20  ARG20       0.2591
     51  O         69.0120   48.9190  135.0730 O.2    20  ARG20      -0.2718
     52  CB        69.3780   46.9950  132.4920 C.3    20  ARG20       0.0321
     53  CG        69.9140   46.7360  131.0960 C.3    20  ARG20       0.0489
     54  CD        68.9700   45.8740  130.2990 C.3    20  ARG20       0.2205
     55  NE        67.8280   46.6490  129.8280 N.pl3  20  ARG20      -0.0865
     56  CZ        67.7350   47.1790  128.6140 C.cat  20  ARG20       0.5346
     57  NH1       68.7160   47.0140  127.7340 N.pl3  20  ARG20       0.1354
     58  NH2       66.6660   47.8850  128.2830 N.pl3  20  ARG20       0.1354
     59  N         70.1470   47.0660  135.6210 N.am   21  LEU21      -0.1980
     60  CA        69.7070   47.1000  137.0150 C.3    21  LEU21       0.1596
     61  C         70.3450   48.3000  137.7100 C.2    21  LEU21       0.2287
     62  O         69.7040   48.9720  138.5080 O.2    21  LEU21      -0.2864
     63  CB        70.1000   45.8080  137.7480 C.3    21  LEU21       0.0297
     64  CG        69.7550   45.7130  139.2440 C.3    21  LEU21       0.0022
     65  CD1       68.2330   45.7560  139.4380 C.3    21  LEU21       0.0001
     66  CD2       70.3190   44.4160  139.8270 C.3    21  LEU21       0.0001
     67  N         68.4920   51.3860  136.8620 N.3    24  ARG24      -0.1245
     68  CA        67.2360   51.3980  137.6040 C.3    24  ARG24       0.1563
     69  C         67.4500   51.7530  139.0660 C.2    24  ARG24       0.2260
     70  O         66.8000   52.6480  139.5900 O.2    24  ARG24      -0.2867
     71  CB        66.5330   50.0420  137.5270 C.3    24  ARG24       0.0307
     72  CG        66.2140   49.6110  136.1300 C.3    24  ARG24       0.0489
     73  CD        64.9360   48.7830  136.0660 C.3    24  ARG24       0.2205
     74  NE        64.6990   48.3790  134.6870 N.pl3  24  ARG24      -0.0865
     75  CZ        65.3120   47.3620  134.0990 C.cat  24  ARG24       0.5346
     76  NH1       66.1850   46.6270  134.7780 N.pl3  24  ARG24       0.1354
     77  NH2       65.0900   47.1170  132.8170 N.pl3  24  ARG24       0.1354
     78  N         72.8410   40.3470  121.1000 N.3    94  ARG94      -0.1245
     79  CA        73.5280   39.8790  122.2920 C.3    94  ARG94       0.1563
     80  C         74.2440   38.5760  121.9970 C.2    94  ARG94       0.2260
     81  O         73.8580   37.8460  121.0820 O.2    94  ARG94      -0.2867
     82  CB        72.5240   39.6640  123.4210 C.3    94  ARG94       0.0307
     83  CG        71.7670   40.9180  123.8060 C.3    94  ARG94       0.0489
     84  CD        70.7530   40.6320  124.8960 C.3    94  ARG94       0.2205
     85  NE        70.1340   41.8620  125.3710 N.pl3  94  ARG94      -0.0865
     86  CZ        69.1120   41.9110  126.2200 C.cat  94  ARG94       0.5346
     87  NH1       68.5840   40.7870  126.6940 N.pl3  94  ARG94       0.1354
     88  NH2       68.6190   43.0880  126.5980 N.pl3  94  ARG94       0.1354
@<TRIPOS>BOND
     1    81    80    2
     2    78    79    1
     3    80    79    1
     4    79    82    1
     5    82    83    1
     6    83    84    1
     7    84    85    1
     8    85    86    2
     9    86    88    1
    10    86    87    1
    11    41    39   ar
    12    40    39   ar
    13    39    38    1
    14    57    56    1
    15    58    56    1
    16    38    37    1
    17    56    55    2
    18    37    34    1
    19    55    54    1
    20    54    53    1
    21    34    33    1
    22    34    35    1
    23    32    30   ar
    24    53    52    1
    25    35    36    2
    26    35    42   am
    27    30    29    1
    28    30    31   ar
    29    29    26    1
    30    42    43    1
    31    47    46    1
    32    52    49    1
    33    77    75    1
    34    43    46    1
    35    43    44    1
    36    26    27    1
    37    26    25    1
    38    27    28    2
    39    48    49    1
    40    49    50    1
    41    75    74    2
    42    75    76    1
    43    44    45    2
    44    25    19   am
    45    74    73    1
    46    50    51    2
    47    50    59   am
    48    19    20    2
    49    19    18    1
    50    59    60    1
    51    73    72    1
    52    72    71    1
    53    18    21    1
    54    18    17    1
    55    21    22    1
    56    67    68    1
    57    24    22    1
    58    60    61    1
    59    60    63    1
    60    71    68    1
    61    68    69    1
    62    22    23    1
    63    61    62    2
    64    63    64    1
    65    69    70    2
    66    64    65    1
    67    64    66    1
    68    12    11    2
    69    11    10    1
    70    13    10    1
    71    13    14    1
    72    10     9    1
    73    16    14    1
    74    15    14    1
    75     4     3    2
    76     3     2    1
    77     2     5    1
    78     2     1    1
    79     5     6    1
    80     8     6    1
    81     7     6    1
