@<TRIPOS>MOLECULE
tmp/1uuxA00.pdb
 136 130 0 0 0
SMALL
GASTEIGER

@<TRIPOS>ATOM
      1  N         23.5660  111.6920  169.5860 N.3    77  GLY77      -0.1210
      2  CA        24.3890  110.6350  170.1210 C.3    77  GLY77       0.1956
      3  C         23.7280  109.2840  170.2040 C.2    77  GLY77       0.2612
      4  O         22.5150  109.1560  170.0260 O.2    77  GLY77      -0.2717
      5  N         24.5650  108.2760  170.4510 N.am   78  GLY78      -0.1942
      6  CA        24.0930  106.9100  170.5790 C.3    78  GLY78       0.2014
      7  C         23.6930  106.2700  169.2740 C.2    78  GLY78       0.2640
      8  O         22.9280  105.3030  169.2890 O.2    78  GLY78      -0.2714
      9  N         24.2030  106.7730  168.1410 N.am   79  THR79      -0.1936
     10  CA        23.8720  106.1900  166.8500 C.3    79  THR79       0.2028
     11  C         24.9550  105.3010  166.2390 C.2    79  THR79       0.2643
     12  O         24.7320  104.7770  165.1720 O.2    79  THR79      -0.2714
     13  CB        23.4620  107.2480  165.8110 C.3    79  THR79       0.1808
     14  OG1       24.5950  107.9710  165.3700 O.3    79  THR79      -0.2208
     15  CG2       22.4670  108.2900  166.3830 C.3    79  THR79       0.0379
     16  N         26.1050  105.1790  166.8800 N.am   80  GLY80      -0.1939
     17  CA        27.2050  104.4220  166.3380 C.3    80  GLY80       0.2014
     18  C         27.1250  102.9330  166.5810 C.2    80  GLY80       0.2638
     19  O         26.0660  102.3680  166.8190 O.2    80  GLY80      -0.2714
     20  N         28.2920  102.3280  166.5050 N.am   81  PHE81      -0.1973
     21  CA        28.4120  100.8670  166.3830 C.3    81  PHE81       0.1639
     22  C         28.7570  100.2230  167.7230 C.2    81  PHE81       0.2290
     23  O         28.8530   99.0020  167.7930 O.2    81  PHE81      -0.2864
     24  CB        29.4840  100.4930  165.3800 C.3    81  PHE81       0.0560
     25  CG        29.0260  100.4710  163.9350 C.ar   81  PHE81      -0.0200
     26  CD1       28.1970  101.4410  163.4070 C.ar   81  PHE81      -0.0042
     27  CD2       29.4670   99.4760  163.1070 C.ar   81  PHE81      -0.0042
     28  CE1       27.7950  101.4030  162.0620 C.ar   81  PHE81      -0.0003
     29  CE2       29.0900   99.4410  161.7540 C.ar   81  PHE81      -0.0003
     30  CZ        28.2480  100.4060  161.2390 C.ar   81  PHE81      -0.0000
     31  N         25.3240  102.0060  171.9540 N.3    85  ASP85      -0.1239
     32  CA        24.6410  102.9210  171.0400 C.3    85  ASP85       0.1674
     33  C         23.2700  102.3470  170.6620 C.2    85  ASP85       0.2266
     34  O         23.1840  101.4560  169.8080 O.2    85  ASP85      -0.2867
     35  CB        25.4620  103.1320  169.7620 C.3    85  ASP85       0.1410
     36  CG        26.7220  103.9320  169.9670 C.2    85  ASP85       0.3668
     37  OD1       26.6600  104.9440  170.6710 O.co2  85  ASP85      -0.2456
     38  OD2       27.8380  103.6410  169.4650 O.co2  85  ASP85      -0.2456
     39  N         26.8370  114.1800  154.9240 N.3   110  SER110     -0.1217
     40  CA        27.8540  113.8650  155.9380 C.3   110  SER110      0.1889
     41  C         29.0440  113.1180  155.3270 C.2   110  SER110      0.2288
     42  O         30.1890  113.3550  155.7120 O.2   110  SER110     -0.2866
     43  CB        27.2380  113.0940  157.1010 C.3   110  SER110      0.2089
     44  OG        26.3160  113.9170  157.8160 O.3   110  SER110     -0.2183
     45  N         31.9280  115.1380  154.0600 N.3   113  ILE113     -0.1231
     46  CA        32.8050  115.6290  155.1100 C.3   113  ILE113      0.1692
     47  C         33.7600  114.5600  155.6260 C.2   113  ILE113      0.2592
     48  O         34.9630  114.7910  155.6970 O.2   113  ILE113     -0.2718
     49  CB        31.9660  116.1880  156.2500 C.3   113  ILE113      0.0266
     50  CG1       31.0760  117.3140  155.7040 C.3   113  ILE113      0.0019
     51  CG2       32.8510  116.7230  157.3730 C.3   113  ILE113      0.0020
     52  CD1       29.9810  117.7160  156.6140 C.3   113  ILE113      0.0001
     53  N         33.2260  113.3900  155.9660 N.am  114  THR114     -0.1953
     54  CA        34.0320  112.3160  156.5460 C.3   114  THR114      0.1897
     55  C         33.4660  110.9430  156.1790 C.2   114  THR114      0.2313
     56  O         32.2790  110.7590  156.2150 O.2   114  THR114     -0.2863
     57  CB        34.0910  112.4690  158.0880 C.3   114  THR114      0.1794
     58  OG1       34.6900  111.3080  158.6750 O.3   114  THR114     -0.2208
     59  CG2       32.7230  112.5930  158.7340 C.3   114  THR114      0.0378
     60  N         33.5690  108.4970  158.0420 N.3   116  PHE116     -0.1227
     61  CA        33.0120  107.9720  159.2880 C.3   116  PHE116      0.1736
     62  C         31.5120  108.2380  159.4430 C.2   116  PHE116      0.2595
     63  O         30.8390  107.6730  160.3160 O.2   116  PHE116     -0.2718
     64  CB        33.8130  108.4970  160.4920 C.3   116  PHE116      0.0547
     65  CG        35.2430  108.0300  160.5830 C.ar  116  PHE116     -0.0202
     66  CD1       35.9050  107.4110  159.5250 C.ar  116  PHE116     -0.0042
     67  CD2       35.9410  108.2520  161.7670 C.ar  116  PHE116     -0.0042
     68  CE1       37.2330  107.0080  159.6580 C.ar  116  PHE116     -0.0003
     69  CE2       37.2550  107.8530  161.9060 C.ar  116  PHE116     -0.0003
     70  CZ        37.9040  107.2330  160.8470 C.ar  116  PHE116     -0.0000
     71  N         30.9470  109.0790  158.5670 N.am  117  ALA117     -0.1980
     72  CA        29.5040  109.2150  158.4750 C.3   117  ALA117      0.1597
     73  C         28.7740  107.8780  158.2950 C.2   117  ALA117      0.2287
     74  O         27.6640  107.7010  158.7980 O.2   117  ALA117     -0.2864
     75  CB        29.1330  110.1750  157.3440 C.3   117  ALA117      0.0319
     76  N         29.1920  105.2390  159.7590 N.3   119  LEU119     -0.1231
     77  CA        29.0190  104.5860  161.0510 C.3   119  LEU119      0.1693
     78  C         27.8220  105.1040  161.8340 C.2   119  LEU119      0.2592
     79  O         27.4800  104.5590  162.8540 O.2   119  LEU119     -0.2718
     80  CB        30.3000  104.6770  161.8750 C.3   119  LEU119      0.0284
     81  CG        31.5640  104.1500  161.1930 C.3   119  LEU119      0.0019
     82  CD1       32.7760  104.3940  162.1040 C.3   119  LEU119      0.0001
     83  CD2       31.4490  102.6750  160.8190 C.3   119  LEU119      0.0001
     84  N         27.1500  106.1310  161.3410 N.am  120  SER120     -0.1952
     85  CA        25.8910  106.5400  161.9540 C.3   120  SER120      0.1924
     86  C         24.7330  105.6590  161.5190 C.2   120  SER120      0.2314
     87  O         24.4580  105.4830  160.3270 O.2   120  SER120     -0.2863
     88  CB        25.5470  107.9800  161.6030 C.3   120  SER120      0.2116
     89  OG        24.3100  108.3280  162.1690 O.3   120  SER120     -0.2180
     90  N         24.1650  112.3720  165.0210 N.3   136  PRO136     -0.2102
     91  CA        25.3420  111.8790  165.7240 C.3   136  PRO136      0.1504
     92  C         25.7150  112.7880  166.8780 C.2   136  PRO136      0.2576
     93  O         25.3200  113.9660  166.9000 O.2   136  PRO136     -0.2718
     94  CB        26.4230  111.8750  164.6340 C.3   136  PRO136      0.0282
     95  CG        25.6880  111.9090  163.3870 C.3   136  PRO136      0.0208
     96  CD        24.5160  112.8120  163.6570 C.3   136  PRO136      0.0893
     97  N         26.4910  112.2450  167.8040 N.am  137  GLY137     -0.1943
     98  CA        26.8980  112.9560  169.0030 C.3   137  GLY137      0.2014
     99  C         28.0740  113.9020  168.8520 C.2   137  GLY137      0.2638
    100  O         28.3670  114.6330  169.7750 O.2   137  GLY137     -0.2714
    101  N         28.7800  113.8520  167.7270 N.am  138  ASN138     -0.1972
    102  CA        29.8870  114.7850  167.4390 C.3   138  ASN138      0.1688
    103  C         29.2900  116.1930  167.2790 C.2   138  ASN138      0.2292
    104  O         28.3880  116.3630  166.4940 O.2   138  ASN138     -0.2864
    105  CB        30.5490  114.3280  166.1280 C.3   138  ASN138      0.1181
    106  CG        31.7680  115.1250  165.7580 C.2   138  ASN138      0.2629
    107  OD1       31.7180  116.3440  165.5980 O.2   138  ASN138     -0.2716
    108  ND2       32.8860  114.4220  165.5860 N.am  138  ASN138     -0.0877
    109  N         30.1790  118.8700  165.6520 N.3   140  ASN140     -0.1225
    110  CA        30.2160  119.2590  164.2460 C.3   140  ASN140      0.1785
    111  C         29.1730  118.5480  163.3970 C.2   140  ASN140      0.2597
    112  O         28.7050  119.1110  162.4090 O.2   140  ASN140     -0.2718
    113  CB        31.6050  118.9880  163.6540 C.3   140  ASN140      0.1169
    114  CG        32.6660  119.9240  164.2110 C.2   140  ASN140      0.2627
    115  OD1       32.4760  121.1380  164.2550 O.2   140  ASN140     -0.2716
    116  ND2       33.7790  119.3600  164.6520 N.am  140  ASN140     -0.0877
    117  N         28.8220  117.3160  163.7790 N.am  141  ALA141     -0.1979
    118  CA        27.8000  116.5450  163.0660 C.3   141  ALA141      0.1597
    119  C         26.4410  117.2140  163.0500 C.2   141  ALA141      0.2287
    120  O         25.8130  117.2230  162.0050 O.2   141  ALA141     -0.2864
    121  CB        27.6640  115.1170  163.6350 C.3   141  ALA141      0.0319
    122  N         26.1710  120.0230  160.5010 N.3   144  GLU144     -0.1231
    123  CA        26.2550  119.4970  159.1410 C.3   144  GLU144      0.1699
    124  C         24.9540  118.8090  158.7300 C.2   144  GLU144      0.2592
    125  O         24.4750  118.9670  157.6140 O.2   144  GLU144     -0.2718
    126  CB        27.4470  118.5550  159.0400 C.3   144  GLU144      0.0402
    127  CG        28.7640  119.3070  159.2970 C.3   144  GLU144      0.1161
    128  CD        29.8900  118.4530  159.8760 C.2   144  GLU144      0.3649
    129  OE1       29.6810  117.2310  160.0610 O.co2 144  GLU144     -0.2457
    130  OE2       30.9860  119.0220  160.1460 O.co2 144  GLU144     -0.2457
    131  N         24.3630  118.0820  159.6550 N.am  145  CYS145     -0.1970
    132  CA        23.1020  117.3800  159.4060 C.3   145  CYS145      0.1712
    133  C         21.9580  118.3730  159.2490 C.2   145  CYS145      0.2296
    134  O         21.1380  118.2580  158.3560 O.2   145  CYS145     -0.2864
    135  CB        22.8020  116.3980  160.5330 C.3   145  CYS145      0.0983
    136  SG        23.8310  114.9330  160.3960 S.3   145  CYS145     -0.0798
@<TRIPOS>BOND
     1    45    46    1
     2    39    40    1
     3    46    47    1
     4    46    49    1
     5    41    42    2
     6    41    40    1
     7    47    48    2
     8    47    53   am
     9    50    49    1
    10    50    52    1
    11    40    43    1
    12    53    54    1
    13    55    56    2
    14    55    54    1
    15    49    51    1
    16    54    57    1
    17    43    44    1
    18    75    72    1
    19   125   124    2
    20    60    61    1
    21    57    58    1
    22    57    59    1
    23    73    72    1
    24    73    74    2
    25   134   133    2
    26    72    71    1
    27    71    62   am
    28   124   123    1
    29   124   131   am
    30   126   123    1
    31   126   127    1
    32   123   122    1
    33   133   132    1
    34    61    62    1
    35    61    64    1
    36   127   128    1
    37   132   131    1
    38   132   135    1
    39    62    63    2
    40    66    68   ar
    41    66    65   ar
    42    68    70   ar
    43    76    77    1
    44   128   129   ar
    45   128   130   ar
    46    87    86    2
    47   136   135    1
    48    64    65    1
    49    65    67   ar
    50    83    81    1
    51    70    69   ar
    52    77    78    1
    53    77    80    1
    54    81    80    1
    55    81    82    1
    56    30    29   ar
    57    30    28   ar
    58    84    78   am
    59    84    85    1
    60    86    85    1
    61    88    85    1
    62    88    89    1
    63    29    27   ar
    64    67    69   ar
    65    78    79    2
    66   120   119    2
    67    28    26   ar
    68   112   111    2
    69   119   118    1
    70   118   121    1
    71   118   117    1
    72    27    25   ar
    73    95    96    1
    74    95    94    1
    75   111   117   am
    76   111   110    1
    77    26    25   ar
    78   113   114    1
    79   113   110    1
    80    96    90    1
    81    25    24    1
    82   114   115    2
    83   114   116   am
    84   110   109    1
    85    94    91    1
    86    90    91    1
    87    12    11    2
    88    14    13    1
    89    24    21    1
    90   108   106   am
    91   107   106    2
    92    91    92    1
    93   106   105    1
    94    13    15    1
    95    13    10    1
    96   105   102    1
    97    11    10    1
    98    11    16   am
    99    17    18    1
   100    17    16    1
   101    21    20    1
   102    21    22    1
   103   104   103    2
   104    20    18   am
   105    18    19    2
   106    10     9    1
   107    92    93    2
   108    92    97   am
   109   103   102    1
   110   102   101    1
   111    22    23    2
   112   101    99   am
   113    97    98    1
   114     9     7   am
   115    99    98    1
   116    99   100    2
   117     7     8    2
   118     7     6    1
   119    38    36   ar
   120     1     2    1
   121    35    36    1
   122    35    32    1
   123    34    33    2
   124    36    37   ar
   125     4     3    2
   126     2     3    1
   127     3     5   am
   128     5     6    1
   129    33    32    1
   130    32    31    1
