@<TRIPOS>MOLECULE
tmp/1uuyA01.pdb
 128 122 0 0 0
SMALL
GASTEIGER

@<TRIPOS>ATOM
      1  N         19.9180  114.9480  174.5340 N.3    10  THR10      -0.1203
      2  CA        21.2650  114.4180  174.5140 C.3    10  THR10       0.1994
      3  C         21.2280  113.0350  175.1120 C.2    10  THR10       0.2618
      4  O         20.7280  112.8660  176.2300 O.2    10  THR10      -0.2717
      5  CB        22.1680  115.3290  175.3030 C.3    10  THR10       0.1784
      6  OG1       22.2620  116.5850  174.5940 O.3    10  THR10      -0.2211
      7  CG2       23.5900  114.7780  175.3810 C.3    10  THR10       0.0376
      8  N         21.7630  112.0580  174.3860 N.am   11  VAL11      -0.1965
      9  CA        21.8040  110.6760  174.8300 C.3    11  VAL11       0.1727
     10  C         23.2590  110.3330  175.0900 C.2    11  VAL11       0.2616
     11  O         24.0830  110.2740  174.1730 O.2    11  VAL11      -0.2715
     12  CB        21.2080  109.7190  173.7970 C.3    11  VAL11       0.0290
     13  CG1       21.2220  108.3090  174.3570 C.3    11  VAL11       0.0023
     14  CG2       19.7920  110.1340  173.4210 C.3    11  VAL11       0.0023
     15  N         23.5910  110.1390  176.3560 N.am   12  SER12      -0.1950
     16  CA        24.9590  109.9120  176.7700 C.3    12  SER12       0.1924
     17  C         25.0510  109.4140  178.2060 C.2    12  SER12       0.2314
     18  O         24.6840  110.1420  179.1500 O.2    12  SER12      -0.2863
     19  CB        25.7450  111.2220  176.6940 C.3    12  SER12       0.2116
     20  OG        27.0640  111.0650  177.2440 O.3    12  SER12      -0.2180
     21  N         27.4040  112.0690  180.0680 N.3    15  VAL15      -0.1245
     22  CA        26.7800  113.3090  180.4900 C.3    15  VAL15       0.1561
     23  C         25.7470  113.0470  181.5700 C.2    15  VAL15       0.2260
     24  O         25.6630  113.7830  182.5590 O.2    15  VAL15      -0.2867
     25  CB        26.1570  114.0690  179.3100 C.3    15  VAL15       0.0252
     26  CG1       25.5560  115.4020  179.7850 C.3    15  VAL15       0.0019
     27  CG2       27.2120  114.3080  178.2070 C.3    15  VAL15       0.0019
     28  N         30.5790  117.3180  180.5250 N.3    21  PRO21      -0.2102
     29  CA        29.5350  118.2550  180.1090 C.3    21  PRO21       0.1504
     30  C         28.9050  117.8430  178.8020 C.2    21  PRO21       0.2576
     31  O         29.4420  117.0260  178.0430 O.2    21  PRO21      -0.2718
     32  CB        30.3040  119.5370  179.8840 C.3    21  PRO21       0.0282
     33  CG        31.6080  119.0600  179.3510 C.3    21  PRO21       0.0208
     34  CD        31.9210  117.7920  180.1320 C.3    21  PRO21       0.0893
     35  N         27.7740  118.4460  178.4980 N.am   22  ASP22      -0.1960
     36  CA        27.1390  118.3120  177.2190 C.3    22  ASP22       0.1840
     37  C         27.7360  119.3280  176.2340 C.2    22  ASP22       0.2622
     38  O         27.5580  120.5330  176.3910 O.2    22  ASP22      -0.2715
     39  CB        25.6330  118.5300  177.3850 C.3    22  ASP22       0.1450
     40  CG        24.8690  118.2240  176.1550 C.2    22  ASP22       0.3671
     41  OD1       23.6380  118.3540  176.2010 O.co2  22  ASP22      -0.2456
     42  OD2       25.4230  117.8680  175.0930 O.co2  22  ASP22      -0.2456
     43  N         28.4550  118.8380  175.2270 N.am   23  ARG23      -0.1963
     44  CA        28.9990  119.6890  174.1700 C.3    23  ARG23       0.1729
     45  C         28.1660  119.6720  172.8870 C.2    23  ARG23       0.2616
     46  O         28.2640  120.5840  172.0810 O.2    23  ARG23      -0.2715
     47  CB        30.4730  119.3280  173.8840 C.3    23  ARG23       0.0348
     48  CG        31.3610  119.4840  175.1030 C.3    23  ARG23       0.0492
     49  CD        32.8460  119.1570  174.8650 C.3    23  ARG23       0.2205
     50  NE        33.6490  119.3290  176.0790 N.pl3  23  ARG23      -0.0865
     51  CZ        34.0970  120.4960  176.5520 C.cat  23  ARG23       0.5346
     52  NH1       33.8400  121.6410  175.9180 N.pl3  23  ARG23       0.1354
     53  NH2       34.8160  120.5220  177.6740 N.pl3  23  ARG23       0.1354
     54  N         27.3120  118.6770  172.7270 N.am   24  SER24      -0.1950
     55  CA        26.4900  118.5510  171.5410 C.3    24  SER24       0.1924
     56  C         25.2210  119.3540  171.6770 C.2    24  SER24       0.2314
     57  O         24.8000  120.0430  170.7460 O.2    24  SER24      -0.2863
     58  CB        26.1510  117.0820  171.2940 C.3    24  SER24       0.2116
     59  OG        27.3770  116.3770  171.1650 O.3    24  SER24      -0.2180
     60  N         22.3590  106.0440  177.8580 N.3    52  ASP52      -0.1239
     61  CA        22.2290  105.1350  176.7300 C.3    52  ASP52       0.1674
     62  C         21.4250  103.9240  177.1710 C.2    52  ASP52       0.2266
     63  O         21.9730  102.8470  177.3660 O.2    52  ASP52      -0.2867
     64  CB        23.6180  104.7220  176.2850 C.3    52  ASP52       0.1410
     65  CG        24.4100  105.8460  175.7130 C.2    52  ASP52       0.3668
     66  OD1       24.0680  106.3410  174.6140 O.co2  52  ASP52      -0.2456
     67  OD2       25.4290  106.2800  176.3010 O.co2  52  ASP52      -0.2456
     68  N         20.6830  113.5010  170.0920 N.3    76  LEU76      -0.1231
     69  CA        22.1090  113.6340  169.8230 C.3    76  LEU76       0.1693
     70  C         22.8310  112.4970  170.5170 C.2    76  LEU76       0.2593
     71  O         22.7610  112.3410  171.7270 O.2    76  LEU76      -0.2718
     72  CB        22.6370  114.9660  170.3420 C.3    76  LEU76       0.0284
     73  CG        21.8140  116.2260  170.0820 C.3    76  LEU76       0.0019
     74  CD1       22.4300  117.4160  170.7890 C.3    76  LEU76       0.0001
     75  CD2       21.6680  116.5000  168.6080 C.3    76  LEU76       0.0001
     76  N         23.5160  111.6770  169.7490 N.am   77  GLY77      -0.1942
     77  CA        24.3170  110.6170  170.3060 C.3    77  GLY77       0.2014
     78  C         23.6600  109.2630  170.3200 C.2    77  GLY77       0.2639
     79  O         22.4610  109.1030  170.1380 O.2    77  GLY77      -0.2714
     80  N         24.4970  108.2650  170.5480 N.am   78  GLY78      -0.1939
     81  CA        24.0370  106.8960  170.6570 C.3    78  GLY78       0.2014
     82  C         23.6540  106.2710  169.3390 C.2    78  GLY78       0.2640
     83  O         22.9000  105.3170  169.3310 O.2    78  GLY78      -0.2714
     84  N         24.2000  106.7730  168.2240 N.am   79  THR79      -0.1936
     85  CA        23.8670  106.2150  166.9200 C.3    79  THR79       0.2028
     86  C         24.9060  105.2980  166.3340 C.2    79  THR79       0.2642
     87  O         24.6310  104.7010  165.3010 O.2    79  THR79      -0.2714
     88  CB        23.5490  107.2770  165.8640 C.3    79  THR79       0.1808
     89  OG1       24.7410  107.9660  165.5020 O.3    79  THR79      -0.2208
     90  CG2       22.5610  108.3300  166.3680 C.3    79  THR79       0.0379
     91  N         26.0510  105.1430  166.9770 N.am   80  GLY80      -0.1954
     92  CA        27.1550  104.3870  166.4120 C.3    80  GLY80       0.1869
     93  C         27.1040  102.9000  166.6500 C.2    80  GLY80       0.2309
     94  O         26.0500  102.2960  166.8830 O.2    80  GLY80      -0.2863
     95  N         28.9110  100.9570  168.8800 N.3    82  THR82      -0.1218
     96  CA        29.2700  100.3530  170.1600 C.3    82  THR82       0.1862
     97  C         28.0520   99.6950  170.7800 C.2    82  THR82       0.2287
     98  O         26.9180  100.0520  170.4720 O.2    82  THR82      -0.2866
     99  CB        29.8980  101.3470  171.1560 C.3    82  THR82       0.1770
    100  OG1       28.9040  102.2440  171.6670 O.3    82  THR82      -0.2211
    101  CG2       30.9750  102.2140  170.5010 C.3    82  THR82       0.0375
    102  N         25.3060  102.0080  172.0440 N.3    85  ASP85      -0.1239
    103  CA        24.6240  102.9130  171.1100 C.3    85  ASP85       0.1674
    104  C         23.2670  102.3320  170.7240 C.2    85  ASP85       0.2266
    105  O         23.1860  101.4740  169.8540 O.2    85  ASP85      -0.2867
    106  CB        25.4550  103.1120  169.8510 C.3    85  ASP85       0.1410
    107  CG        26.6930  103.9150  170.0760 C.2    85  ASP85       0.3668
    108  OD1       26.6670  104.9220  170.8060 O.co2  85  ASP85      -0.2456
    109  OD2       27.7680  103.6350  169.5320 O.co2  85  ASP85      -0.2456
    110  N         26.4580  112.0480  167.9070 N.3   137  GLY137     -0.1210
    111  CA        26.8580  112.7170  169.1200 C.3   137  GLY137      0.1956
    112  C         28.0300  113.6570  168.9460 C.2   137  GLY137      0.2612
    113  O         28.2460  114.4890  169.7900 O.2   137  GLY137     -0.2717
    114  N         28.8110  113.5060  167.8830 N.am  138  ASN138     -0.1960
    115  CA        29.9420  114.4040  167.6360 C.3   138  ASN138      0.1804
    116  C         29.4180  115.8260  167.6110 C.2   138  ASN138      0.2463
    117  O         28.5060  116.1380  166.8570 O.2   138  ASN138     -0.2730
    118  CB        30.6000  114.0760  166.3040 C.3   138  ASN138      0.1195
    119  CG        31.8710  114.8580  166.0700 C.2   138  ASN138      0.2630
    120  OD1       31.8550  116.0880  165.9850 O.2   138  ASN138     -0.2716
    121  ND2       32.9860  114.1420  165.9520 N.am  138  ASN138     -0.0877
    122  N         29.9490  116.7060  168.4500 N.am  139  PRO139     -0.2727
    123  CA        29.4220  118.0700  168.4770 C.3   139  PRO139      0.1402
    124  C         29.3310  118.7780  167.1220 C.2   139  PRO139      0.2269
    125  O         28.4260  119.5640  166.9860 O.2   139  PRO139     -0.2865
    126  CB        30.3650  118.7870  169.4430 C.3   139  PRO139      0.0296
    127  CG        30.7950  117.7070  170.3800 C.3   139  PRO139      0.0237
    128  CD        30.9770  116.4920  169.4890 C.3   139  PRO139      0.0939
@<TRIPOS>BOND
     1    87    86    2
     2    89    88    1
     3    88    90    1
     4    88    85    1
     5   121   119   am
     6   120   119    2
     7   119   118    1
     8   118   115    1
     9    86    85    1
    10    86    91   am
    11    92    93    1
    12    92    91    1
    13    93    94    2
    14   117   116    2
    15    85    84    1
    16   125   124    2
    17   124   123    1
    18   116   115    1
    19   116   122   am
    20   115   114    1
    21   114   112   am
    22   110   111    1
    23    84    82   am
    24   122   123    1
    25   122   128    1
    26   123   126    1
    27    75    73    1
    28    95    96    1
    29   112   111    1
    30   112   113    2
    31    83    82    2
    32    82    81    1
    33   126   127    1
    34   128   127    1
    35   109   107   ar
    36    76    77    1
    37    76    70   am
    38    69    68    1
    39    69    72    1
    40    69    70    1
    41   106   107    1
    42   106   103    1
    43   105   104    2
    44   107   108   ar
    45    73    72    1
    46    73    74    1
    47    79    78    2
    48    96    97    1
    49    96    99    1
    50    77    78    1
    51    78    80   am
    52    98    97    2
    53   101    99    1
    54    70    71    2
    55    80    81    1
    56   104   103    1
    57    57    56    2
    58   103   102    1
    59    99   100    1
    60    59    58    1
    61    58    55    1
    62    55    56    1
    63    55    54    1
    64    46    45    2
    65    54    45   am
    66    45    44    1
    67    14    12    1
    68    12    13    1
    69    12     9    1
    70    47    44    1
    71    47    48    1
    72    44    43    1
    73    11    10    2
    74     8     9    1
    75     8     3   am
    76     2     1    1
    77     2     3    1
    78     2     5    1
    79     6     5    1
    80    66    65   ar
    81     9    10    1
    82    49    48    1
    83    49    50    1
    84    10    15   am
    85    42    40   ar
    86     3     4    2
    87    43    37   am
    88     5     7    1
    89    65    64    1
    90    65    67   ar
    91    52    51    1
    92    50    51    2
    93    40    41   ar
    94    40    39    1
    95    37    38    2
    96    37    36    1
    97    64    61    1
    98    15    16    1
    99    51    53    1
   100    19    16    1
   101    19    20    1
   102    61    62    1
   103    61    60    1
   104    16    17    1
   105    62    63    2
   106    36    39    1
   107    36    35    1
   108    31    30    2
   109    17    18    2
   110    27    25    1
   111    35    30   am
   112    30    29    1
   113    25    26    1
   114    25    22    1
   115    33    32    1
   116    33    34    1
   117    32    29    1
   118    21    22    1
   119    29    28    1
   120    34    28    1
   121    22    23    1
   122    23    24    2
