@<TRIPOS>MOLECULE
tmp/1uvkE00.pdb
 205 191 0 0 0
SMALL
GASTEIGER

@<TRIPOS>ATOM
      1  N        -63.7200    0.8480   -0.3990 N.3    81  ARG81      -0.1245
      2  CA       -63.3120   -0.2080   -1.3420 C.3    81  ARG81       0.1563
      3  C        -63.3770   -1.5700   -0.7820 C.2    81  ARG81       0.2260
      4  O        -63.4900   -2.5760   -1.5320 O.2    81  ARG81      -0.2867
      5  CB       -61.8800   -0.0520   -1.7710 C.3    81  ARG81       0.0307
      6  CG       -61.5950    1.2400   -2.2830 C.3    81  ARG81       0.0489
      7  CD       -60.4280    1.1310   -3.1610 C.3    81  ARG81       0.2205
      8  NE       -59.1950    0.8710   -2.4470 N.pl3  81  ARG81      -0.0865
      9  CZ       -58.0140    0.9420   -3.0380 C.cat  81  ARG81       0.5346
     10  NH1      -57.9420    1.2420   -4.3230 N.pl3  81  ARG81       0.1354
     11  NH2      -56.9010    0.7790   -2.3450 N.pl3  81  ARG81       0.1354
     12  N        -39.1650   -5.1820    5.2000 N.3   204  ARG204     -0.1231
     13  CA       -40.0190   -4.1020    5.7360 C.3   204  ARG204      0.1694
     14  C        -41.4530   -4.5730    5.9890 C.2   204  ARG204      0.2592
     15  O        -41.8640   -5.6320    5.5280 O.2   204  ARG204     -0.2718
     16  CB       -40.1040   -2.9490    4.7600 C.3   204  ARG204      0.0321
     17  CG       -38.8910   -2.0860    4.8170 C.3   204  ARG204      0.0489
     18  CD       -39.2310   -0.6670    4.3220 C.3   204  ARG204      0.2205
     19  NE       -40.6570   -0.4910    3.9790 N.pl3 204  ARG204     -0.0865
     20  CZ       -41.1890    0.6620    3.5650 C.cat 204  ARG204      0.5346
     21  NH1      -40.4210    1.7450    3.4450 N.pl3 204  ARG204      0.1354
     22  NH2      -42.4790    0.7300    3.2500 N.pl3 204  ARG204      0.1354
     23  N        -42.2250   -3.7390    6.6710 N.am  205  ALA205     -0.1966
     24  CA       -43.5990   -4.0680    6.9880 C.3   205  ALA205      0.1728
     25  C        -44.5840   -3.3780    6.1050 C.2   205  ALA205      0.2616
     26  O        -44.3770   -2.2180    5.7630 O.2   205  ALA205     -0.2715
     27  CB       -43.9390   -3.6810    8.4370 C.3   205  ALA205      0.0334
     28  N        -45.6070   -4.1240    5.6880 N.am  206  GLN206     -0.1963
     29  CA       -46.7610   -3.5400    5.0030 C.3   206  GLN206      0.1733
     30  C        -47.7090   -3.8580    6.1650 C.2   206  GLN206      0.2617
     31  O        -48.1590   -4.9900    6.3740 O.2   206  GLN206     -0.2715
     32  CB       -47.1780   -4.2660    3.7420 C.3   206  GLN206      0.0408
     33  CG       -48.3890   -3.5740    3.1150 C.3   206  GLN206      0.0908
     34  CD       -48.8150   -4.2050    1.7900 C.2   206  GLN206      0.2608
     35  OE1      -50.0020   -4.5230    1.5620 O.2   206  GLN206     -0.2717
     36  NE2      -47.8460   -4.3910    0.9110 N.am  206  GLN206     -0.0878
     37  N        -47.9070   -2.8350    6.9790 N.am  207  SER207     -0.1936
     38  CA       -48.6720   -2.9360    8.2090 C.3   207  SER207      0.2055
     39  C        -50.0810   -3.4180    8.0690 C.2   207  SER207      0.2643
     40  O        -50.6390   -3.9780    8.9800 O.2   207  SER207     -0.2714
     41  CB       -48.6470   -1.5990    8.9400 C.3   207  SER207      0.2130
     42  OG       -49.2260   -0.5930    8.1270 O.3   207  SER207     -0.2179
     43  N        -50.6980   -3.1940    6.9420 N.am  208  THR208     -0.1950
     44  CA       -52.0460   -3.7300    6.8350 C.3   208  THR208      0.1897
     45  C        -52.0800   -4.5910    5.5900 C.2   208  THR208      0.2313
     46  O        -51.2980   -4.3720    4.6630 O.2   208  THR208     -0.2863
     47  CB       -53.1140   -2.5930    6.7940 C.3   208  THR208      0.1794
     48  OG1      -52.9860   -1.8490    5.5830 O.3   208  THR208     -0.2208
     49  CG2      -52.9110   -1.6350    7.9940 C.3   208  THR208      0.0378
     50  N        -47.4900   -8.6490    7.0440 N.3   268  ARG268     -0.1245
     51  CA       -46.9450   -9.0050    5.7800 C.3   268  ARG268      0.1563
     52  C        -45.5770   -8.3380    5.6890 C.2   268  ARG268      0.2260
     53  O        -45.4270   -7.1710    6.0580 O.2   268  ARG268     -0.2867
     54  CB       -47.8130   -8.4230    4.6840 C.3   268  ARG268      0.0307
     55  CG       -47.1610   -8.5460    3.3380 C.3   268  ARG268      0.0489
     56  CD       -48.0140   -7.9210    2.2820 C.3   268  ARG268      0.2205
     57  NE       -47.5650   -8.3500    0.9720 N.pl3 268  ARG268     -0.0865
     58  CZ       -48.0830   -7.9360   -0.1840 C.cat 268  ARG268      0.5346
     59  NH1      -49.0870   -7.0530   -0.2250 N.pl3 268  ARG268      0.1354
     60  NH2      -47.6170   -8.4470   -1.3070 N.pl3 268  ARG268      0.1354
     61  N        -42.3620   -7.2530    3.1510 N.3   270  ARG270     -0.1245
     62  CA       -41.8550   -7.0060    1.8050 C.3   270  ARG270      0.1563
     63  C        -40.3350   -6.8490    1.8080 C.2   270  ARG270      0.2260
     64  O        -39.7440   -6.3910    2.7960 O.2   270  ARG270     -0.2867
     65  CB       -42.4700   -5.7140    1.2810 C.3   270  ARG270      0.0307
     66  CG       -43.8810   -5.9410    0.7600 C.3   270  ARG270      0.0489
     67  CD       -44.6550   -4.6510    0.6030 C.3   270  ARG270      0.2205
     68  NE       -45.8430   -4.8410   -0.2360 N.pl3 270  ARG270     -0.0865
     69  CZ       -45.8170   -5.0610   -1.5500 C.cat 270  ARG270      0.5346
     70  NH1      -44.6640   -5.1250   -2.1990 N.pl3 270  ARG270      0.1354
     71  NH2      -46.9530   -5.2070   -2.2220 N.pl3 270  ARG270      0.1354
     72  N        -54.1350   -2.0350  -13.0750 N.3   324  ASP324     -0.1225
     73  CA       -53.4300   -2.7250  -12.0170 C.3   324  ASP324      0.1805
     74  C        -52.3320   -3.6260  -12.5990 C.2   324  ASP324      0.2597
     75  O        -52.5490   -4.3450  -13.5750 O.2   324  ASP324     -0.2718
     76  CB       -54.4020   -3.5580  -11.2050 C.3   324  ASP324      0.1424
     77  CG       -53.9130   -3.7540   -9.7970 C.2   324  ASP324      0.3668
     78  OD1      -53.2250   -2.8130   -9.3130 O.co2 324  ASP324     -0.2456
     79  OD2      -54.2110   -4.8100   -9.1840 O.co2 324  ASP324     -0.2456
     80  N        -51.1450   -3.5600  -12.0130 N.am  325  VAL325     -0.1980
     81  CA       -50.0480   -4.3720  -12.4700 C.3   325  VAL325      0.1595
     82  C        -49.7070   -5.3590  -11.3810 C.2   325  VAL325      0.2287
     83  O        -49.4820   -4.9930  -10.2330 O.2   325  VAL325     -0.2864
     84  CB       -48.7860   -3.5630  -12.7550 C.3   325  VAL325      0.0276
     85  CG1      -47.7620   -4.4660  -13.3750 C.3   325  VAL325      0.0022
     86  CG2      -49.0750   -2.4190  -13.6860 C.3   325  VAL325      0.0022
     87  N        -45.0180    4.8660  -12.2870 N.3   452  SER452     -0.1202
     88  CA       -44.6700    3.4460  -12.2250 C.3   452  SER452      0.2020
     89  C        -45.9050    2.5820  -12.5050 C.2   452  SER452      0.2619
     90  O        -46.6430    2.8120  -13.4820 O.2   452  SER452     -0.2717
     91  CB       -44.1090    3.1180  -10.8480 C.3   452  SER452      0.2103
     92  OG       -42.8080    3.6560  -10.7230 O.3   452  SER452     -0.2182
     93  N        -46.1740    1.6170  -11.6310 N.am  453  ASP453     -0.1959
     94  CA       -47.3420    0.7670  -11.8530 C.3   453  ASP453      0.1840
     95  C        -48.7060    1.3170  -11.4640 C.2   453  ASP453      0.2622
     96  O        -49.6800    0.5430  -11.4400 O.2   453  ASP453     -0.2715
     97  CB       -47.1710   -0.6010  -11.1670 C.3   453  ASP453      0.1450
     98  CG       -47.0250   -0.4900   -9.6480 C.2   453  ASP453      0.3671
     99  OD1      -46.6620    0.6030   -9.1830 O.co2 453  ASP453     -0.2456
    100  OD2      -47.2510   -1.4930   -8.9300 O.co2 453  ASP453     -0.2456
    101  N        -48.7990    2.5980  -11.0950 N.am  454  ASP454     -0.1971
    102  CA       -50.1290    3.1380  -10.7950 C.3   454  ASP454      0.1709
    103  C        -50.4930    4.0470  -11.9600 C.2   454  ASP454      0.2293
    104  O        -49.6780    4.8900  -12.3930 O.2   454  ASP454     -0.2864
    105  CB       -50.1700    3.9460   -9.4930 C.3   454  ASP454      0.1436
    106  CG       -51.6240    4.1660   -8.9820 C.2   454  ASP454      0.3671
    107  OD1      -52.5720    3.5250   -9.4870 O.co2 454  ASP454     -0.2456
    108  OD2      -51.8300    4.9800   -8.0660 O.co2 454  ASP454     -0.2456
    109  N        -58.0430   -2.1950  -11.5980 N.3   491  GLU491     -0.1245
    110  CA       -57.9900   -2.0850  -10.1400 C.3   491  GLU491      0.1567
    111  C        -59.4090   -2.1880   -9.5580 C.2   491  GLU491      0.2260
    112  O        -60.2940   -1.4510   -9.9950 O.2   491  GLU491     -0.2867
    113  CB       -57.3700   -0.7490   -9.7340 C.3   491  GLU491      0.0388
    114  CG       -57.3060   -0.5070   -8.2020 C.3   491  GLU491      0.1160
    115  CD       -56.4740    0.7230   -7.8540 C.2   491  GLU491      0.3649
    116  OE1      -56.4250    1.6260   -8.7190 O.co2 491  GLU491     -0.2457
    117  OE2      -55.8760    0.8120   -6.7360 O.co2 491  GLU491     -0.2457
    118  N        -52.6080    7.1180   -6.9870 N.3   497  LEU497     -0.1231
    119  CA       -51.7160    7.7740   -6.0640 C.3   497  LEU497      0.1693
    120  C        -52.4020    8.0620   -4.7330 C.2   497  LEU497      0.2592
    121  O        -52.2930    9.1780   -4.1790 O.2   497  LEU497     -0.2718
    122  CB       -51.1900    9.0600   -6.7110 C.3   497  LEU497      0.0284
    123  CG       -49.6960    9.0710   -7.0370 C.3   497  LEU497      0.0019
    124  CD1      -49.1710    7.6570   -7.2690 C.3   497  LEU497      0.0001
    125  CD2      -49.4640    9.9630   -8.2500 C.3   497  LEU497      0.0001
    126  N        -53.1210    7.0610   -4.2210 N.am  498  GLY498     -0.1957
    127  CA       -53.7900    7.2150   -2.9230 C.3   498  GLY498      0.1869
    128  C        -55.2040    7.7580   -2.9020 C.2   498  GLY498      0.2309
    129  O        -55.9400    7.5090   -1.9460 O.2   498  GLY498     -0.2863
    130  N        -58.5020    8.2850    0.5070 N.3   517  ASN517     -0.1240
    131  CA       -58.9540    6.9260    0.8190 C.3   517  ASN517      0.1653
    132  C        -59.0960    6.9130    2.3430 C.2   517  ASN517      0.2266
    133  O        -58.0820    6.9790    3.0620 O.2   517  ASN517     -0.2867
    134  CB       -57.9250    5.8710    0.3990 C.3   517  ASN517      0.1155
    135  CG       -58.4240    4.4600    0.6560 C.2   517  ASN517      0.2627
    136  OD1      -59.3130    4.2660    1.4760 O.2   517  ASN517     -0.2716
    137  ND2      -57.8670    3.4750   -0.0400 N.am  517  ASN517     -0.0877
    138  N        -57.0110    4.5600    4.2940 N.3   520  SER520     -0.1217
    139  CA       -55.6050    4.8930    4.5040 C.3   520  SER520      0.1889
    140  C        -55.4010    5.7960    5.7190 C.2   520  SER520      0.2288
    141  O        -54.3040    5.8020    6.2870 O.2   520  SER520     -0.2866
    142  CB       -54.9860    5.5870    3.2700 C.3   520  SER520      0.2089
    143  OG       -54.9610    4.7290    2.1410 O.3   520  SER520     -0.2183
    144  N        -55.1410    3.3560    8.2970 N.3   523  ASN523     -0.1225
    145  CA       -53.8610    2.6470    8.2720 C.3   523  ASN523      0.1785
    146  C        -52.7430    3.5080    8.8610 C.2   523  ASN523      0.2597
    147  O        -51.9140    3.0140    9.6610 O.2   523  ASN523     -0.2718
    148  CB       -53.4410    2.2580    6.8600 C.3   523  ASN523      0.1169
    149  CG       -54.3860    1.2580    6.2330 C.2   523  ASN523      0.2627
    150  OD1      -55.2530    0.6630    6.9090 O.2   523  ASN523     -0.2716
    151  ND2      -54.2270    1.0620    4.9410 N.am  523  ASN523     -0.0877
    152  N        -52.7150    4.7820    8.4710 N.am  524  ASN524     -0.1974
    153  CA       -51.6700    5.6510    8.9710 C.3   524  ASN524      0.1688
    154  C        -51.7940    5.9850   10.4640 C.2   524  ASN524      0.2292
    155  O        -50.7860    6.1820   11.1160 O.2   524  ASN524     -0.2864
    156  CB       -51.6250    6.9650    8.1780 C.3   524  ASN524      0.1181
    157  CG       -50.9710    6.8180    6.7720 C.2   524  ASN524      0.2629
    158  OD1      -50.6980    7.8370    6.1150 O.2   524  ASN524     -0.2716
    159  ND2      -50.7190    5.5570    6.3110 N.am  524  ASN524     -0.0877
    160  N        -45.9530    1.9880    9.9280 N.3   529  GLU529     -0.1245
    161  CA       -44.9420    0.9950    9.5990 C.3   529  GLU529      0.1567
    162  C        -43.8140    0.9280   10.5470 C.2   529  GLU529      0.2260
    163  O        -43.1180   -0.0800   10.5880 O.2   529  GLU529     -0.2867
    164  CB       -44.3470    1.2750    8.2530 C.3   529  GLU529      0.0388
    165  CG       -45.4000    1.6610    7.3330 C.3   529  GLU529      0.1160
    166  CD       -45.1360    1.1590    5.9760 C.2   529  GLU529      0.3649
    167  OE1      -44.0830    1.5390    5.4070 O.co2 529  GLU529     -0.2457
    168  OE2      -46.0020    0.3710    5.5040 O.co2 529  GLU529     -0.2457
    169  N        -44.4030   11.4810    8.1490 N.3   624  ASP624     -0.1239
    170  CA       -44.0860   10.2550    7.4470 C.3   624  ASP624      0.1674
    171  C        -43.2820   10.5420    6.1500 C.2   624  ASP624      0.2266
    172  O        -43.8250   10.4970    5.0480 O.2   624  ASP624     -0.2867
    173  CB       -45.4440    9.5740    7.1540 C.3   624  ASP624      0.1410
    174  CG       -45.3060    8.2800    6.3720 C.2   624  ASP624      0.3668
    175  OD1      -44.1810    7.7440    6.3510 O.co2 624  ASP624     -0.2456
    176  OD2      -46.3180    7.7970    5.7920 O.co2 624  ASP624     -0.2456
    177  N        -41.5880    8.8940    4.3760 N.3   626  ASN626     -0.1225
    178  CA       -41.6950    7.7780    3.4710 C.3   626  ASN626      0.1785
    179  C        -42.5110    8.1940    2.2400 C.2   626  ASN626      0.2597
    180  O        -42.2430    7.7510    1.1340 O.2   626  ASN626     -0.2718
    181  CB       -42.4190    6.6520    4.1910 C.3   626  ASN626      0.1169
    182  CG       -41.8950    5.3060    3.8180 C.2   626  ASN626      0.2627
    183  OD1      -42.6350    4.4600    3.2820 O.2   626  ASN626     -0.2716
    184  ND2      -40.5980    5.0860    4.0880 N.am  626  ASN626     -0.0877
    185  N        -43.5240    9.0270    2.4330 N.am  627  LYS627     -0.1980
    186  CA       -44.3320    9.4710    1.3080 C.3   627  LYS627      0.1596
    187  C        -43.4920   10.2410    0.2660 C.2   627  LYS627      0.2287
    188  O        -43.8770   10.3650   -0.8900 O.2   627  LYS627     -0.2864
    189  CB       -45.4860   10.3440    1.8150 C.3   627  LYS627      0.0298
    190  CG       -46.5760    9.5270    2.4770 C.3   627  LYS627      0.0038
    191  CD       -47.6830   10.3990    3.0200 C.3   627  LYS627      0.0206
    192  CE       -48.9000    9.5730    3.4270 C.3   627  LYS627      0.1093
    193  NZ       -48.6370    8.6900    4.5970 N.3   627  LYS627     -0.1314
    194  N        -42.3890    7.8810   -2.7790 N.3   630  TYR630     -0.1241
    195  CA       -43.3700    7.1360   -3.5680 C.3   630  TYR630      0.1605
    196  C        -44.5730    7.9540   -3.9450 C.2   630  TYR630      0.2264
    197  O        -45.3160    7.5730   -4.8280 O.2   630  TYR630     -0.2867
    198  CB       -43.8380    5.8480   -2.8490 C.3   630  TYR630      0.0534
    199  CG       -44.8650    5.9910   -1.7270 C.ar  630  TYR630     -0.0201
    200  CD1      -46.2240    6.1570   -2.0020 C.ar  630  TYR630     -0.0009
    201  CD2      -44.4740    5.9330   -0.3830 C.ar  630  TYR630     -0.0009
    202  CE1      -47.1890    6.2660   -0.9620 C.ar  630  TYR630      0.0417
    203  CE2      -45.4260    6.0410    0.6710 C.ar  630  TYR630      0.0417
    204  CZ       -46.7870    6.2050    0.3760 C.ar  630  TYR630      0.1957
    205  OH       -47.7230    6.2910    1.4040 O.3   630  TYR630     -0.2866
@<TRIPOS>BOND
     1    86    84    1
     2    75    74    2
     3    90    89    2
     4    85    84    1
     5    72    73    1
     6    84    81    1
     7    74    73    1
     8    74    80   am
     9    89    88    1
    10    89    93   am
    11    81    80    1
    12    81    82    1
    13   104   103    2
    14    87    88    1
    15    88    91    1
    16    73    76    1
    17   103   102    1
    18    94    93    1
    19    94    95    1
    20    94    97    1
    21   109   110    1
    22    95    96    2
    23    95   101   am
    24    82    83    2
    25    76    77    1
    26    97    98    1
    27   101   102    1
    28    91    92    1
    29   102   105    1
    30   110   113    1
    31   110   111    1
    32   112   111    2
    33    77    78   ar
    34    77    79   ar
    35   113   114    1
    36    98    99   ar
    37    98   100   ar
    38   105   106    1
    39   107   106   ar
    40   106   108   ar
    41   116   115   ar
    42   125   123    1
    43   114   115    1
    44   115   117   ar
    45   124   123    1
    46   123   122    1
    47   118   119    1
    48   122   119    1
    49   119   120    1
    50   197   196    2
    51   120   126   am
    52   120   121    2
    53    10     9    1
    54   126   127    1
    55   196   195    1
    56   195   198    1
    57   195   194    1
    58     7     8    1
    59     7     6    1
    60     9     8    2
    61     9    11    1
    62   127   128    1
    63   128   129    2
    64   198   199    1
    65     6     5    1
    66    71    69    1
    67    70    69    1
    68   200   199   ar
    69   200   202   ar
    70     5     2    1
    71   199   201   ar
    72    69    68    2
    73     4     3    2
    74     2     3    1
    75     2     1    1
    76    60    58    1
    77   202   204   ar
    78   188   187    2
    79   201   203   ar
    80    68    67    1
    81    59    58    1
    82    58    57    2
    83   137   135   am
    84   187   186    1
    85   204   203   ar
    86   204   205    1
    87   134   135    1
    88   134   131    1
    89   130   131    1
    90    67    66    1
    91   135   136    2
    92    66    65    1
    93   131   132    1
    94    36    34   am
    95    57    56    1
    96   180   179    2
    97    65    62    1
    98   186   189    1
    99   186   185    1
   100    35    34    2
   101    34    33    1
   102    62    63    1
   103    62    61    1
   104    63    64    2
   105   189   190    1
   106   143   142    1
   107   179   185   am
   108   179   178    1
   109    56    55    1
   110   132   133    2
   111   190   191    1
   112   191   192    1
   113    33    32    1
   114    22    20    1
   115   142   139    1
   116   183   182    2
   117    55    54    1
   118   192   193    1
   119    21    20    1
   120   178   181    1
   121   178   177    1
   122    20    19    2
   123    32    29    1
   124   182   184   am
   125   182   181    1
   126    19    18    1
   127   138   139    1
   128    18    17    1
   129   139   140    1
   130    46    45    2
   131    54    51    1
   132    16    17    1
   133    16    13    1
   134   151   149   am
   135    29    28    1
   136    29    30    1
   137   172   171    2
   138    12    13    1
   139   167   166   ar
   140   168   166   ar
   141    15    14    2
   142    48    47    1
   143    45    44    1
   144    28    25   am
   145    52    51    1
   146    52    53    2
   147   140   141    2
   148    13    14    1
   149    26    25    2
   150    51    50    1
   151   176   174   ar
   152   166   165    1
   153    14    23   am
   154    25    24    1
   155   158   157    2
   156   171   170    1
   157    30    31    2
   158    30    37   am
   159   149   148    1
   160   149   150    2
   161   159   157   am
   162   175   174   ar
   163   174   173    1
   164    23    24    1
   165   157   156    1
   166    47    44    1
   167    47    49    1
   168    44    43    1
   169   148   145    1
   170    43    39   am
   171    37    38    1
   172    24    27    1
   173   173   170    1
   174   165   164    1
   175   170   169    1
   176    39    38    1
   177    39    40    2
   178    42    41    1
   179   156   153    1
   180    38    41    1
   181   164   161    1
   182   145   144    1
   183   145   146    1
   184   152   146   am
   185   152   153    1
   186   146   147    2
   187   153   154    1
   188   161   160    1
   189   161   162    1
   190   154   155    2
   191   162   163    2
