@<TRIPOS>MOLECULE
tmp/1uvnC01.pdb
 179 168 0 0 0
SMALL
GASTEIGER

@<TRIPOS>ATOM
      1  N         49.2600   22.7940   51.7470 N.3   204  ARG204     -0.1245
      2  CA        49.6720   21.3780   51.8010 C.3   204  ARG204      0.1563
      3  C         48.8710   20.7320   52.9480 C.2   204  ARG204      0.2260
      4  O         49.0210   21.1190   54.1030 O.2   204  ARG204     -0.2867
      5  CB        51.1660   21.2210   52.1280 C.3   204  ARG204      0.0307
      6  CG        51.6030   19.7650   52.4320 C.3   204  ARG204      0.0489
      7  CD        52.6460   19.6800   53.5580 C.3   204  ARG204      0.2205
      8  NE        53.3750   18.4090   53.5540 N.pl3 204  ARG204     -0.0865
      9  CZ        54.2880   18.0420   54.4550 C.cat 204  ARG204      0.5346
     10  NH1       54.5950   18.8410   55.4610 N.pl3 204  ARG204      0.1354
     11  NH2       54.9190   16.8760   54.3390 N.pl3 204  ARG204      0.1354
     12  N         47.9220   17.8180   55.6020 N.3   206  GLN206     -0.1245
     13  CA        48.5580   16.7290   56.3380 C.3   206  GLN206      0.1566
     14  C         47.4160   15.7880   56.6550 C.2   206  GLN206      0.2260
     15  O         46.6290   16.0040   57.5760 O.2   206  GLN206     -0.2867
     16  CB        49.1950   17.2540   57.6230 C.3   206  GLN206      0.0367
     17  CG        50.3390   16.4030   58.1750 C.3   206  GLN206      0.0905
     18  CD        51.6830   17.1490   58.1900 C.2   206  GLN206      0.2608
     19  OE1       51.7350   18.3280   58.5550 O.2   206  GLN206     -0.2717
     20  NE2       52.7740   16.4560   57.8080 N.am  206  GLN206     -0.0878
     21  N         47.7850   22.5680   56.6500 N.3   270  ARG270     -0.1245
     22  CA        48.8720   23.4470   56.9900 C.3   270  ARG270      0.1563
     23  C         48.9720   24.4190   55.8540 C.2   270  ARG270      0.2260
     24  O         48.6860   24.0650   54.7260 O.2   270  ARG270     -0.2867
     25  CB        50.1710   22.6510   57.0880 C.3   270  ARG270      0.0307
     26  CG        51.2780   23.1170   56.1460 C.3   270  ARG270      0.0489
     27  CD        52.5030   22.2110   56.2330 C.3   270  ARG270      0.2205
     28  NE        53.1180   22.2440   57.5570 N.pl3 270  ARG270     -0.0865
     29  CZ        53.6730   21.1940   58.1560 C.cat 270  ARG270      0.5346
     30  NH1       53.6930   20.0180   57.5440 N.pl3 270  ARG270      0.1354
     31  NH2       54.1990   21.3130   59.3710 N.pl3 270  ARG270      0.1354
     32  N         64.3540   27.9790   53.4940 N.3   398  THR398     -0.1203
     33  CA        63.5990   27.7220   54.7070 C.3   398  THR398      0.1994
     34  C         64.1720   26.6230   55.5460 C.2   398  THR398      0.2617
     35  O         63.9930   26.6200   56.7570 O.2   398  THR398     -0.2717
     36  CB        62.2010   27.3170   54.4020 C.3   398  THR398      0.1784
     37  OG1       62.2460   26.2320   53.4700 O.3   398  THR398     -0.2211
     38  CG2       61.4420   28.4840   53.8310 C.3   398  THR398      0.0376
     39  N         64.8280   25.6550   54.9230 N.am  399  ASP399     -0.1973
     40  CA        65.3810   24.6000   55.7470 C.3   399  ASP399      0.1709
     41  C         66.6170   25.1140   56.4860 C.2   399  ASP399      0.2293
     42  O         66.8100   24.8180   57.6640 O.2   399  ASP399     -0.2864
     43  CB        65.6800   23.3170   54.9340 C.3   399  ASP399      0.1436
     44  CG        66.7130   23.5130   53.8300 C.2   399  ASP399      0.3671
     45  OD1       67.2760   22.4610   53.3690 O.co2 399  ASP399     -0.2456
     46  OD2       66.9380   24.6850   53.4210 O.co2 399  ASP399     -0.2456
     47  N         67.5710   18.5270   62.0590 N.3   451  LYS451     -0.1231
     48  CA        67.0360   18.9820   60.7850 C.3   451  LYS451      0.1693
     49  C         66.0280   20.0150   61.2550 C.2   451  LYS451      0.2593
     50  O         65.0110   19.6630   61.8540 O.2   451  LYS451     -0.2718
     51  CB        66.3170   17.8520   60.0380 C.3   451  LYS451      0.0285
     52  CG        65.8020   18.2410   58.6520 C.3   451  LYS451      0.0035
     53  CD        66.9330   18.3190   57.6430 C.3   451  LYS451      0.0206
     54  CE        66.4170   18.5050   56.2180 C.3   451  LYS451      0.1093
     55  NZ        67.3250   17.8450   55.2170 N.3   451  LYS451     -0.1314
     56  N         66.3130   21.2860   61.0080 N.am  452  SER452     -0.1938
     57  CA        65.4000   22.3180   61.4570 C.3   452  SER452      0.2055
     58  C         65.0630   21.9910   62.9030 C.2   452  SER452      0.2643
     59  O         65.9580   21.8840   63.7370 O.2   452  SER452     -0.2714
     60  CB        64.1180   22.3360   60.6160 C.3   452  SER452      0.2130
     61  OG        64.1170   23.4080   59.6830 O.3   452  SER452     -0.2179
     62  N         63.7890   21.7780   63.2040 N.am  453  ASP453     -0.1957
     63  CA        63.4410   21.5170   64.5820 C.3   453  ASP453      0.1840
     64  C         63.4110   20.0780   65.0180 C.2   453  ASP453      0.2622
     65  O         63.0950   19.8050   66.1590 O.2   453  ASP453     -0.2715
     66  CB        62.1120   22.1870   64.9500 C.3   453  ASP453      0.1450
     67  CG        60.8920   21.4000   64.4980 C.2   453  ASP453      0.3671
     68  OD1       60.4920   21.4900   63.3190 O.co2 453  ASP453     -0.2456
     69  OD2       60.3270   20.6910   65.3510 O.co2 453  ASP453     -0.2456
     70  N         63.7180   19.1350   64.1450 N.am  454  ASP454     -0.1971
     71  CA        63.7050   17.7640   64.6200 C.3   454  ASP454      0.1709
     72  C         65.1280   17.4250   64.9930 C.2   454  ASP454      0.2293
     73  O         66.0560   17.6010   64.1910 O.2   454  ASP454     -0.2864
     74  CB        63.1990   16.7890   63.5580 C.3   454  ASP454      0.1436
     75  CG        62.8760   15.4070   64.1340 C.2   454  ASP454      0.3671
     76  OD1       62.6770   15.2850   65.3550 O.co2 454  ASP454     -0.2456
     77  OD2       62.8070   14.4390   63.3590 O.co2 454  ASP454     -0.2456
     78  N         63.6820   12.0990   62.2660 N.3   497  LEU497     -0.1231
     79  CA        63.6040   12.0750   60.8290 C.3   497  LEU497      0.1693
     80  C         62.9220   10.8450   60.2760 C.2   497  LEU497      0.2592
     81  O         63.4290   10.2430   59.3320 O.2   497  LEU497     -0.2718
     82  CB        64.9970   12.1490   60.2640 C.3   497  LEU497      0.0284
     83  CG        65.1030   12.9710   59.0090 C.3   497  LEU497      0.0019
     84  CD1       64.9590   14.4310   59.3490 C.3   497  LEU497      0.0001
     85  CD2       66.4530   12.6990   58.4060 C.3   497  LEU497      0.0001
     86  N         61.8030   10.4530   60.8860 N.am  498  GLY498     -0.1957
     87  CA        61.0270    9.3340   60.3770 C.3   498  GLY498      0.1869
     88  C         61.2470    7.9280   60.8740 C.2   498  GLY498      0.2309
     89  O         60.4350    7.0310   60.5820 O.2   498  GLY498     -0.2863
     90  N         59.1110    4.1120   61.1470 N.3   517  ASN517     -0.1240
     91  CA        57.8830    4.2180   61.9140 C.3   517  ASN517      0.1653
     92  C         56.7800    3.5190   61.1460 C.2   517  ASN517      0.2266
     93  O         56.4710    3.9170   60.0270 O.2   517  ASN517     -0.2867
     94  CB        57.4850    5.6640   62.1220 C.3   517  ASN517      0.1155
     95  CG        56.2090    5.7800   62.9170 C.2   517  ASN517      0.2627
     96  OD1       55.4400    4.8230   63.0150 O.2   517  ASN517     -0.2716
     97  ND2       55.9650    6.9480   63.4870 N.am  517  ASN517     -0.0877
     98  N         53.8600    5.5770   60.0310 N.3   520  SER520     -0.1217
     99  CA        54.2540    6.3420   58.8630 C.3   520  SER520      0.1889
    100  C         53.9360    5.5590   57.6110 C.2   520  SER520      0.2288
    101  O         53.4620    6.1380   56.6350 O.2   520  SER520     -0.2866
    102  CB        55.7450    6.6120   58.8940 C.3   520  SER520      0.2089
    103  OG        56.0940    7.3000   60.0800 O.3   520  SER520     -0.2183
    104  N         51.2740    6.6710   54.8500 N.3   524  ASN524     -0.1240
    105  CA        51.6830    6.8830   53.4760 C.3   524  ASN524      0.1653
    106  C         50.9040    6.0360   52.4890 C.2   524  ASN524      0.2266
    107  O         50.5300    6.5020   51.4320 O.2   524  ASN524     -0.2867
    108  CB        53.1640    6.5770   53.2910 C.3   524  ASN524      0.1155
    109  CG        54.0590    7.6050   53.9410 C.2   524  ASN524      0.2627
    110  OD1       55.2780    7.6030   53.7240 O.2   524  ASN524     -0.2716
    111  ND2       53.4670    8.4900   54.7460 N.am  524  ASN524     -0.0877
    112  N         49.1320   12.4800   50.7750 N.3   529  GLU529     -0.1245
    113  CA        48.8980   13.9030   50.9880 C.3   529  GLU529      0.1567
    114  C         48.3150   14.4890   49.6870 C.2   529  GLU529      0.2260
    115  O         47.5880   15.4800   49.7250 O.2   529  GLU529     -0.2867
    116  CB        50.1990   14.6450   51.3980 C.3   529  GLU529      0.0388
    117  CG        51.0590   13.9380   52.4910 C.3   529  GLU529      0.1160
    118  CD        51.5630   14.8610   53.6310 C.2   529  GLU529      0.3649
    119  OE1       52.7090   14.6740   54.1310 O.co2 529  GLU529     -0.2457
    120  OE2       50.7980   15.7570   54.0450 O.co2 529  GLU529     -0.2457
    121  N         60.4750   -0.1130   56.1360 N.3   558  TYR558     -0.1241
    122  CA        59.7650   -0.4870   57.3390 C.3   558  TYR558      0.1605
    123  C         60.0820   -1.8850   57.8750 C.2   558  TYR558      0.2264
    124  O         59.5770   -2.2830   58.9390 O.2   558  TYR558     -0.2867
    125  CB        58.2680   -0.3180   57.0930 C.3   558  TYR558      0.0534
    126  CG        57.9100    1.0790   56.6410 C.ar  558  TYR558     -0.0201
    127  CD1       57.7160    1.3690   55.3000 C.ar  558  TYR558     -0.0009
    128  CD2       57.7920    2.1210   57.5570 C.ar  558  TYR558     -0.0009
    129  CE1       57.4090    2.6620   54.8760 C.ar  558  TYR558      0.0417
    130  CE2       57.4890    3.4240   57.1420 C.ar  558  TYR558      0.0417
    131  CZ        57.2980    3.6800   55.8010 C.ar  558  TYR558      0.1957
    132  OH        56.9900    4.9530   55.3780 O.3   558  TYR558     -0.2866
    133  N         58.5700   14.8040   47.0690 N.3   626  ASN626     -0.1225
    134  CA        58.5210   15.8520   48.0600 C.3   626  ASN626      0.1785
    135  C         59.5690   15.5720   49.1280 C.2   626  ASN626      0.2597
    136  O         60.1550   16.5110   49.6700 O.2   626  ASN626     -0.2718
    137  CB        57.1220   15.9550   48.6790 C.3   626  ASN626      0.1169
    138  CG        56.8400   17.3400   49.2550 C.2   626  ASN626      0.2627
    139  OD1       56.7200   18.3270   48.5100 O.2   626  ASN626     -0.2716
    140  ND2       56.7450   17.4210   50.5870 N.am  626  ASN626     -0.0877
    141  N         59.8220   14.2920   49.4150 N.am  627  LYS627     -0.1980
    142  CA        60.8240   13.9230   50.4210 C.3   627  LYS627      0.1596
    143  C         62.2290   14.3480   50.0040 C.2   627  LYS627      0.2287
    144  O         63.1790   14.1800   50.7500 O.2   627  LYS627     -0.2864
    145  CB        60.8240   12.4100   50.6740 C.3   627  LYS627      0.0298
    146  CG        59.5570   11.8690   51.3180 C.3   627  LYS627      0.0038
    147  CD        59.5830   10.3410   51.3760 C.3   627  LYS627      0.0206
    148  CE        58.2220    9.7510   51.7620 C.3   627  LYS627      0.1093
    149  NZ        58.2000    8.2700   51.5540 N.3   627  LYS627     -0.1314
    150  N         62.9250   17.2480   49.5940 N.3   629  GLN629     -0.1231
    151  CA        63.0350   18.5810   50.1730 C.3   629  GLN629      0.1698
    152  C         63.5830   18.5460   51.5890 C.2   629  GLN629      0.2592
    153  O         64.2400   19.4970   52.0600 O.2   629  GLN629     -0.2718
    154  CB        61.6800   19.2780   50.1140 C.3   629  GLN629      0.0381
    155  CG        61.2660   19.6290   48.6850 C.3   629  GLN629      0.0905
    156  CD        62.2570   20.5620   47.9590 C.2   629  GLN629      0.2608
    157  OE1       61.9480   21.0770   46.8760 O.2   629  GLN629     -0.2717
    158  NE2       63.4430   20.7770   48.5450 N.am  629  GLN629     -0.0878
    159  N         63.3260   17.4320   52.2630 N.am  630  TYR630     -0.1962
    160  CA        63.8470   17.2540   53.6030 C.3   630  TYR630      0.1771
    161  C         64.7640   16.0320   53.8070 C.2   630  TYR630      0.2619
    162  O         66.0050   16.1210   53.7080 O.2   630  TYR630     -0.2715
    163  CB        62.7110   17.2200   54.6230 C.3   630  TYR630      0.0574
    164  CG        61.5960   16.2420   54.3660 C.ar  630  TYR630     -0.0198
    165  CD1       60.7520   16.3930   53.2780 C.ar  630  TYR630     -0.0009
    166  CD2       61.3110   15.2310   55.2850 C.ar  630  TYR630     -0.0009
    167  CE1       59.6190   15.5620   53.1130 C.ar  630  TYR630      0.0417
    168  CE2       60.1940   14.3960   55.1360 C.ar  630  TYR630      0.0417
    169  CZ        59.3410   14.5640   54.0490 C.ar  630  TYR630      0.1957
    170  OH        58.2120   13.7660   53.9040 O.3   630  TYR630     -0.2866
    171  N         64.1400   14.8870   54.0570 N.am  631  LYS631     -0.1977
    172  CA        64.8620   13.6690   54.3480 C.3   631  LYS631      0.1596
    173  C         65.9830   13.1790   53.4230 C.2   631  LYS631      0.2287
    174  O         66.6950   12.2490   53.7910 O.2   631  LYS631     -0.2864
    175  CB        63.8320   12.5690   54.6860 C.3   631  LYS631      0.0298
    176  CG        63.7160   11.3700   53.7770 C.3   631  LYS631      0.0038
    177  CD        62.8390   10.2840   54.4430 C.3   631  LYS631      0.0206
    178  CE        63.4100    9.8150   55.7990 C.3   631  LYS631      0.1093
    179  NZ        62.5910    8.7720   56.5000 N.3   631  LYS631     -0.1314
@<TRIPOS>BOND
     1   157   156    2
     2   133   134    1
     3   156   158   am
     4   156   155    1
     5   134   137    1
     6   134   135    1
     7   139   138    2
     8   137   138    1
     9   155   154    1
    10   135   141   am
    11   135   136    2
    12   138   140   am
    13   141   142    1
    14   150   151    1
    15   114   115    2
    16   114   113    1
    17   143   142    1
    18   143   144    2
    19   154   151    1
    20   151   152    1
    21   142   145    1
    22   145   146    1
    23   112   113    1
    24   113   116    1
    25   146   147    1
    26   147   148    1
    27   116   117    1
    28   107   106    2
    29   149   148    1
    30   152   153    2
    31   152   159   am
    32     1     2    1
    33     2     5    1
    34     2     3    1
    35     5     6    1
    36   159   160    1
    37     6     7    1
    38   106   105    1
    39   117   118    1
    40     3     4    2
    41   167   165   ar
    42   167   169   ar
    43   165   164   ar
    44   108   105    1
    45   108   109    1
    46    45    44   ar
    47    46    44   ar
    48   173   174    2
    49   173   172    1
    50    37    36    1
    51   105   104    1
    52    32    33    1
    53     8     7    1
    54     8     9    2
    55   160   161    1
    56   160   163    1
    57   118   120   ar
    58   118   119   ar
    59   162   161    2
    60   110   109    2
    61   176   177    1
    62   176   175    1
    63   161   171   am
    64    44    43    1
    65    38    36    1
    66   170   169    1
    67   109   111   am
    68   169   168   ar
    69   171   172    1
    70    11     9    1
    71   172   175    1
    72   164   163    1
    73   164   166   ar
    74    36    33    1
    75   177   178    1
    76     9    10    1
    77    33    34    1
    78    24    23    2
    79   129   127   ar
    80   129   131   ar
    81    39    34   am
    82    39    40    1
    83    43    40    1
    84   168   166   ar
    85    55    54    1
    86   127   126   ar
    87   132   131    1
    88    34    35    2
    89    12    13    1
    90    40    41    1
    91   178   179    1
    92   131   130   ar
    93    23    22    1
    94   121   122    1
    95    26    27    1
    96    26    25    1
    97    54    53    1
    98    27    28    1
    99    13    14    1
   100    13    16    1
   101    41    42    2
   102   101   100    2
   103   126   125    1
   104   126   128   ar
   105    21    22    1
   106    14    15    2
   107    22    25    1
   108   125   122    1
   109   130   128   ar
   110   122   123    1
   111    30    29    1
   112    28    29    2
   113   100    99    1
   114    16    17    1
   115    53    52    1
   116    20    18   am
   117   123   124    2
   118    29    31    1
   119    17    18    1
   120    18    19    2
   121    85    83    1
   122    52    51    1
   123    99   102    1
   124    99    98    1
   125   102   103    1
   126    83    84    1
   127    83    82    1
   128    81    80    2
   129    61    60    1
   130    93    92    2
   131    51    48    1
   132    82    79    1
   133    80    79    1
   134    80    86   am
   135    87    88    1
   136    87    86    1
   137    89    88    2
   138    60    57    1
   139    48    49    1
   140    48    47    1
   141    79    78    1
   142    56    49   am
   143    56    57    1
   144    92    91    1
   145    90    91    1
   146    49    50    2
   147    57    58    1
   148    91    94    1
   149    94    95    1
   150    58    62   am
   151    58    59    2
   152    95    96    2
   153    95    97   am
   154    62    63    1
   155    68    67   ar
   156    77    75   ar
   157    74    75    1
   158    74    71    1
   159    75    76   ar
   160    70    71    1
   161    70    64   am
   162    73    72    2
   163    67    66    1
   164    67    69   ar
   165    63    66    1
   166    63    64    1
   167    71    72    1
   168    64    65    2
