@<TRIPOS>MOLECULE
tmp/1uvsB00.pdb
 194 194 0 0 0
SMALL
GASTEIGER

@<TRIPOS>ATOM
      1  N         -5.0030   72.2860  172.6390 N.3    43  HIS43      -0.1241
      2  CA        -5.1340   70.8990  173.0850 C.3    43  HIS43       0.1621
      3  C         -4.6370   69.8590  172.0880 C.2    43  HIS43       0.2264
      4  O         -4.5670   68.6740  172.4080 O.2    43  HIS43      -0.2867
      5  CB        -6.5780   70.5930  173.4990 C.3    43  HIS43       0.0745
      6  CG        -7.5600   70.6570  172.3730 C.ar   43  HIS43       0.0817
      7  ND1       -8.4210   71.7100  172.1580 N.ar   43  HIS43      -0.2268
      8  CD2       -7.8200   69.7630  171.3850 C.ar   43  HIS43       0.1154
      9  CE1       -9.1520   71.4300  171.0710 C.ar   43  HIS43       0.1986
     10  NE2       -8.8220   70.2560  170.5690 N.ar   43  HIS43      -0.2212
     11  N         -1.9920   68.7760  176.4190 N.3    47  TYR47      -0.1241
     12  CA        -3.1430   68.3790  177.2120 C.3    47  TYR47       0.1605
     13  C         -2.6350   67.3480  178.2200 C.2    47  TYR47       0.2264
     14  O         -2.7070   66.1410  177.9840 O.2    47  TYR47      -0.2867
     15  CB        -4.2390   67.7840  176.3280 C.3    47  TYR47       0.0534
     16  CG        -5.5620   67.6570  177.0370 C.ar   47  TYR47      -0.0201
     17  CD1       -6.1700   68.7710  177.6180 C.ar   47  TYR47      -0.0009
     18  CD2       -6.1930   66.4240  177.1560 C.ar   47  TYR47      -0.0009
     19  CE1       -7.3700   68.6580  178.3050 C.ar   47  TYR47       0.0417
     20  CE2       -7.3970   66.2970  177.8420 C.ar   47  TYR47       0.0417
     21  CZ        -7.9780   67.4170  178.4160 C.ar   47  TYR47       0.1957
     22  OH        -9.1540   67.2850  179.1170 O.3    47  TYR47      -0.2866
     23  N         -3.9440   63.7930  179.4720 N.3    50  TRP50      -0.1241
     24  CA        -3.8050   62.7350  178.4770 C.3    50  TRP50       0.1605
     25  C         -2.3320   62.5800  178.1160 C.2    50  TRP50       0.2264
     26  O         -2.0120   62.1590  177.0030 O.2    50  TRP50      -0.2867
     27  CB        -4.5680   63.0950  177.2000 C.3    50  TRP50       0.0550
     28  CG        -6.0470   62.9220  177.2610 C.ar   50  TRP50       0.0003
     29  CD1       -6.8080   62.6890  178.3680 C.ar   50  TRP50       0.0946
     30  CD2       -6.9520   62.9600  176.1530 C.ar   50  TRP50       0.0152
     31  NE1       -8.1300   62.5780  178.0180 N.ar   50  TRP50      -0.2442
     32  CE2       -8.2480   62.7390  176.6630 C.ar   50  TRP50       0.0810
     33  CE3       -6.7910   63.1560  174.7740 C.ar   50  TRP50       0.0012
     34  CZ2       -9.3820   62.7070  175.8440 C.ar   50  TRP50       0.0191
     35  CZ3       -7.9190   63.1240  173.9580 C.ar   50  TRP50       0.0001
     36  CH2       -9.1980   62.9000  174.4980 C.ar   50  TRP50       0.0015
     37  N         -0.3870   64.3240  176.9490 N.3    52  LYS52      -0.1245
     38  CA        -0.2100   64.9040  175.6280 C.3    52  LYS52       0.1561
     39  C          0.6750   66.1420  175.6850 C.2    52  LYS52       0.2260
     40  O          0.2930   67.1620  176.2600 O.2    52  LYS52      -0.2867
     41  CB        -1.5870   65.2610  175.0670 C.3    52  LYS52       0.0271
     42  CG        -1.6720   65.4680  173.5710 C.3    52  LYS52       0.0035
     43  CD        -3.1310   65.6550  173.1850 C.3    52  LYS52       0.0206
     44  CE        -3.3290   65.7420  171.6890 C.3    52  LYS52       0.1093
     45  NZ        -4.7790   65.8610  171.3690 N.3    52  LYS52      -0.1314
     46  N         -6.0340   74.6090  180.2920 N.3    91  TRP91      -0.1241
     47  CA        -6.3440   73.2320  179.9140 C.3    91  TRP91       0.1605
     48  C         -7.0440   72.4510  181.0240 C.2    91  TRP91       0.2264
     49  O         -7.5380   71.3460  180.7920 O.2    91  TRP91      -0.2867
     50  CB        -5.0660   72.4830  179.4980 C.3    91  TRP91       0.0550
     51  CG        -3.9680   72.4720  180.5370 C.ar   91  TRP91       0.0003
     52  CD1       -2.8510   73.2520  180.5480 C.ar   91  TRP91       0.0946
     53  CD2       -3.8880   71.6430  181.7080 C.ar   91  TRP91       0.0152
     54  NE1       -2.0830   72.9670  181.6500 N.ar   91  TRP91      -0.2442
     55  CE2       -2.6950   71.9840  182.3800 C.ar   91  TRP91       0.0810
     56  CE3       -4.7110   70.6480  182.2560 C.ar   91  TRP91       0.0012
     57  CZ2       -2.3010   71.3670  183.5750 C.ar   91  TRP91       0.0191
     58  CZ3       -4.3210   70.0340  183.4430 C.ar   91  TRP91       0.0001
     59  CH2       -3.1260   70.3980  184.0890 C.ar   91  TRP91       0.0015
     60  N        -11.5680   74.8030  181.4240 N.3    93  ASN93      -0.1225
     61  CA       -12.4840   75.0310  180.3070 C.3    93  ASN93       0.1785
     62  C        -11.8220   75.3220  178.9620 C.2    93  ASN93       0.2597
     63  O        -12.4520   75.9130  178.0820 O.2    93  ASN93      -0.2718
     64  CB       -13.3960   76.2110  180.6560 C.3    93  ASN93       0.1169
     65  CG       -12.6120   77.4420  181.1080 C.2    93  ASN93       0.2627
     66  OD1      -11.3910   77.3920  181.2940 O.2    93  ASN93      -0.2716
     67  ND2      -13.3100   78.5510  181.2860 N.am   93  ASN93      -0.0877
     68  N        -10.5680   74.9110  178.7990 N.am   94  LEU94      -0.1980
     69  CA        -9.8330   75.1510  177.5560 C.3    94  LEU94       0.1596
     70  C         -9.8920   76.6220  177.1540 C.2    94  LEU94       0.2287
     71  O        -10.0890   76.9630  175.9820 O.2    94  LEU94      -0.2864
     72  CB       -10.3670   74.2730  176.4220 C.3    94  LEU94       0.0297
     73  CG       -10.1800   72.7630  176.5590 C.3    94  LEU94       0.0022
     74  CD1      -10.6640   72.0970  175.2870 C.3    94  LEU94       0.0001
     75  CD2       -8.7180   72.4210  176.8230 C.3    94  LEU94       0.0001
     76  N        -19.9420   73.8960  181.9370 N.3   166  ILE166     -0.1245
     77  CA       -18.5500   74.3340  181.9430 C.3   166  ILE166      0.1561
     78  C        -18.5480   75.8640  181.9570 C.2   166  ILE166      0.2260
     79  O        -19.3320   76.5000  181.2470 O.2   166  ILE166     -0.2867
     80  CB       -17.7740   73.8140  180.6890 C.3   166  ILE166      0.0252
     81  CG1      -17.5180   72.3080  180.7920 C.3   166  ILE166      0.0019
     82  CG2      -16.4450   74.5410  180.5320 C.3   166  ILE166      0.0019
     83  CD1      -18.6960   71.4470  180.4310 C.3   166  ILE166      0.0001
     84  N        -22.4830   69.9650  163.0410 N.3   186  ASP186     -0.1225
     85  CA       -21.5420   70.2280  164.1240 C.3   186  ASP186      0.1805
     86  C        -20.1860   69.5820  163.8540 C.2   186  ASP186      0.2598
     87  O        -20.0800   68.6080  163.1050 O.2   186  ASP186     -0.2718
     88  CB       -22.1090   69.6990  165.4540 C.3   186  ASP186      0.1424
     89  CG       -21.1660   69.9050  166.6300 C.2   186  ASP186      0.3668
     90  OD1      -20.5650   70.9950  166.7530 O.co2 186  ASP186     -0.2456
     91  OD2      -21.0290   68.9660  167.4410 O.co2 186  ASP186     -0.2456
     92  N        -19.1390   70.1760  164.4130 N.am  187  ALA187     -0.1966
     93  CA       -17.7990   69.6230  164.2810 C.3   187  ALA187      0.1728
     94  C        -17.7870   68.4130  165.2200 C.2   187  ALA187      0.2616
     95  O        -18.6940   68.2550  166.0410 O.2   187  ALA187     -0.2715
     96  CB       -16.7530   70.6550  164.7080 C.3   187  ALA187      0.0334
     97  N        -16.7610   67.5800  165.1320 N.am  188  CYS188     -0.1954
     98  CA       -16.6900   66.3950  165.9770 C.3   188  CYS188      0.1843
     99  C        -15.2260   66.0330  166.1930 C.2   188  CYS188      0.2625
    100  O        -14.3390   66.8080  165.8300 O.2   188  CYS188     -0.2714
    101  CB       -17.4550   65.2440  165.3110 C.3   188  CYS188      0.0997
    102  SG       -17.9080   63.8690  166.4140 S.3   188  CYS188     -0.0797
    103  N        -14.9720   64.8790  166.8050 N.am  189  GLU189     -0.1977
    104  CA       -13.6060   64.4320  167.0640 C.3   189  GLU189      0.1602
    105  C        -12.7840   64.4650  165.7790 C.2   189  GLU189      0.2287
    106  O        -13.2990   64.1860  164.6950 O.2   189  GLU189     -0.2864
    107  CB       -13.6080   63.0200  167.6540 C.3   189  GLU189      0.0415
    108  CG       -12.2280   62.5130  168.0470 C.3   189  GLU189      0.1163
    109  CD       -12.2710   61.1460  168.6990 C.2   189  GLU189      0.3649
    110  OE1      -12.4130   60.1390  167.9740 O.co2 189  GLU189     -0.2457
    111  OE2      -12.1650   61.0770  169.9390 O.co2 189  GLU189     -0.2457
    112  N        -10.7570   69.0350  165.7110 N.3   192  SER192     -0.1217
    113  CA       -10.0600   69.9550  166.6120 C.3   192  SER192      0.1889
    114  C         -9.0290   70.7830  165.8570 C.2   192  SER192      0.2288
    115  O         -8.2960   70.2520  165.0210 O.2   192  SER192     -0.2866
    116  CB        -9.3790   69.1790  167.7460 C.3   192  SER192      0.2089
    117  OG       -10.3330   68.5850  168.6210 O.3   192  SER192     -0.2183
    118  N        -11.8780   75.3940  166.2370 N.3   212  VAL212     -0.1231
    119  CA       -12.6240   74.3090  166.8650 C.3   212  VAL212      0.1692
    120  C        -11.9030   73.8990  168.1450 C.2   212  VAL212      0.2593
    121  O        -10.7350   73.4950  168.1030 O.2   212  VAL212     -0.2718
    122  CB       -12.7280   73.0870  165.9390 C.3   212  VAL212      0.0266
    123  CG1      -13.6200   72.0300  166.5680 C.3   212  VAL212      0.0020
    124  CG2      -13.2630   73.4980  164.5800 C.3   212  VAL212      0.0020
    125  N        -12.5920   74.0130  169.2760 N.am  213  SER213     -0.1938
    126  CA       -11.9990   73.6630  170.5600 C.3   213  SER213      0.2055
    127  C        -12.6780   72.4660  171.2180 C.2   213  SER213      0.2643
    128  O        -12.1190   71.3660  171.2360 O.2   213  SER213     -0.2714
    129  CB       -12.0170   74.8730  171.4980 C.3   213  SER213      0.2130
    130  OG       -11.2230   74.6470  172.6470 O.3   213  SER213     -0.2179
    131  N        -13.8980   72.6520  171.7100 N.am  214  TRP214     -0.1959
    132  CA       -14.5990   71.5590  172.3720 C.3   214  TRP214      0.1771
    133  C        -16.1040   71.5750  172.1880 C.2   214  TRP214      0.2620
    134  O        -16.6750   72.5430  171.6860 O.2   214  TRP214     -0.2715
    135  CB       -14.2640   71.5340  173.8660 C.3   214  TRP214      0.0590
    136  CG       -14.5790   72.8070  174.5970 C.ar  214  TRP214      0.0006
    137  CD1      -13.7680   73.8990  174.7290 C.ar  214  TRP214      0.0946
    138  CD2      -15.7790   73.1100  175.3240 C.ar  214  TRP214      0.0152
    139  NE1      -14.3840   74.8570  175.4940 N.ar  214  TRP214     -0.2442
    140  CE2      -15.6200   74.4020  175.8730 C.ar  214  TRP214      0.0810
    141  CE3      -16.9710   72.4120  175.5670 C.ar  214  TRP214      0.0012
    142  CZ2      -16.6080   75.0150  176.6510 C.ar  214  TRP214      0.0191
    143  CZ3      -17.9550   73.0210  176.3410 C.ar  214  TRP214      0.0001
    144  CH2      -17.7650   74.3110  176.8740 C.ar  214  TRP214      0.0015
    145  N        -16.7340   70.4790  172.5960 N.am  215  GLY215     -0.1940
    146  CA       -18.1720   70.3460  172.4890 C.3   215  GLY215      0.2014
    147  C        -18.6080   69.0560  173.1510 C.2   215  GLY215      0.2639
    148  O        -17.8810   68.0610  173.1200 O.2   215  GLY215     -0.2714
    149  N        -19.7650   69.0880  173.8020 N.am  216  GLU216     -0.1963
    150  CA       -20.2970   67.9100  174.4700 C.3   216  GLU216      0.1733
    151  C        -20.9910   67.0420  173.4290 C.2   216  GLU216      0.2617
    152  O        -22.0480   67.4070  172.9050 O.2   216  GLU216     -0.2715
    153  CB       -21.2780   68.3200  175.5670 C.3   216  GLU216      0.0429
    154  CG       -20.6630   69.2130  176.6280 C.3   216  GLU216      0.1163
    155  CD       -21.6640   69.6350  177.6800 C.2   216  GLU216      0.3649
    156  OE1      -22.6070   70.3850  177.3420 O.co2 216  GLU216     -0.2457
    157  OE2      -21.5050   69.2170  178.8470 O.co2 216  GLU216     -0.2457
    158  N        -20.3780   65.9060  173.1130 N.am  217  GLY217     -0.1940
    159  CA       -20.9470   65.0150  172.1180 C.3   217  GLY217      0.2014
    160  C        -20.7760   65.6250  170.7430 C.2   217  GLY217      0.2639
    161  O        -19.9570   66.5260  170.5660 O.2   217  GLY217     -0.2714
    162  N        -21.5480   65.1460  169.7740 N.am  218  CYS218     -0.1967
    163  CA       -21.4730   65.6640  168.4120 C.3   218  CYS218      0.1712
    164  C        -22.8640   65.7620  167.8040 C.2   218  CYS218      0.2296
    165  O        -23.5420   64.7490  167.6140 O.2   218  CYS218     -0.2864
    166  CB       -20.5840   64.7720  167.5380 C.3   218  CYS218      0.0983
    167  SG       -18.8160   64.7900  167.9770 S.3   218  CYS218     -0.0798
    168  N        -21.3190   73.6570  169.5810 N.3   225  GLY225     -0.1210
    169  CA       -19.8700   73.5840  169.5740 C.3   225  GLY225      0.1956
    170  C        -19.2220   74.8970  169.9660 C.2   225  GLY225      0.2612
    171  O        -19.6620   75.9630  169.5280 O.2   225  GLY225     -0.2717
    172  N        -18.1890   74.8290  170.7990 N.am  226  PHE226     -0.1962
    173  CA       -17.4880   76.0270  171.2350 C.3   226  PHE226      0.1771
    174  C        -16.1740   76.2400  170.5030 C.2   226  PHE226      0.2619
    175  O        -15.3240   75.3460  170.4350 O.2   226  PHE226     -0.2715
    176  CB       -17.2810   76.0100  172.7460 C.3   226  PHE226      0.0574
    177  CG       -18.5380   76.2610  173.5160 C.ar  226  PHE226     -0.0200
    178  CD1      -19.4770   75.2480  173.6860 C.ar  226  PHE226     -0.0042
    179  CD2      -18.8110   77.5250  174.0280 C.ar  226  PHE226     -0.0042
    180  CE1      -20.6690   75.4890  174.3520 C.ar  226  PHE226     -0.0003
    181  CE2      -20.0010   77.7790  174.6960 C.ar  226  PHE226     -0.0003
    182  CZ       -20.9340   76.7590  174.8570 C.ar  226  PHE226     -0.0000
    183  N        -16.0220   77.4380  169.9530 N.am  227  TYR227     -0.1974
    184  CA       -14.8380   77.8060  169.1980 C.3   227  TYR227      0.1639
    185  C        -14.0710   78.9370  169.8740 C.2   227  TYR227      0.2290
    186  O        -14.6600   79.7870  170.5500 O.2   227  TYR227     -0.2864
    187  CB       -15.2420   78.2250  167.7800 C.3   227  TYR227      0.0560
    188  CG       -16.1070   77.2060  167.0720 C.ar  227  TYR227     -0.0198
    189  CD1      -17.4760   77.1370  167.3210 C.ar  227  TYR227     -0.0009
    190  CD2      -15.5550   76.2890  166.1780 C.ar  227  TYR227     -0.0009
    191  CE1      -18.2740   76.1800  166.7050 C.ar  227  TYR227      0.0417
    192  CE2      -16.3460   75.3260  165.5550 C.ar  227  TYR227      0.0417
    193  CZ       -17.7050   75.2760  165.8250 C.ar  227  TYR227      0.1957
    194  OH       -18.4880   74.3090  165.2360 O.3   227  TYR227     -0.2866
@<TRIPOS>BOND
     1    84    85    1
     2    87    86    2
     3    86    85    1
     4    86    92   am
     5    85    88    1
     6    93    92    1
     7    93    96    1
     8    93    94    1
     9   124   122    1
    10   106   105    2
    11   115   114    2
    12    97    94   am
    13    97    98    1
    14    94    95    2
    15   194   193    1
    16   101    98    1
    17   101   102    1
    18    88    89    1
    19   192   193   ar
    20   192   190   ar
    21   112   113    1
    22   105   104    1
    23   193   191   ar
    24   100    99    2
    25   114   113    1
    26   122   123    1
    27   122   119    1
    28    98    99    1
    29   190   188   ar
    30    99   103   am
    31   118   119    1
    32   102   167    1
    33   113   116    1
    34    89    90   ar
    35    89    91   ar
    36   191   189   ar
    37   103   104    1
    38   119   120    1
    39   104   107    1
    40   188   189   ar
    41   188   187    1
    42   166   167    1
    43   166   163    1
    44   165   164    2
    45   107   108    1
    46   116   117    1
    47   187   184    1
    48   164   163    1
    49   110   109   ar
    50   108   109    1
    51   121   120    2
    52   120   125   am
    53   163   162    1
    54   109   111   ar
    55   184   185    1
    56   184   183    1
    57   125   126    1
    58   171   170    2
    59   169   168    1
    60   169   170    1
    61   162   160   am
    62   185   186    2
    63   183   174   am
    64   170   172   am
    65   175   174    2
    66   174   173    1
    67   126   127    1
    68   126   129    1
    69   161   160    2
    70    10     9   ar
    71    10     8   ar
    72   160   159    1
    73   172   173    1
    74     9     7   ar
    75   127   128    2
    76   127   131   am
    77   173   176    1
    78    45    44    1
    79     8     6   ar
    80   129   130    1
    81   134   133    2
    82    44    43    1
    83   131   132    1
    84     3     4    2
    85     3     2    1
    86   159   158    1
    87     7     6   ar
    88   133   132    1
    89   133   145   am
    90   132   135    1
    91     6     5    1
    92   146   145    1
    93   146   147    1
    94     1     2    1
    95   176   177    1
    96   152   151    2
    97     2     5    1
    98   158   151   am
    99   148   147    2
   100   147   149   am
   101    43    42    1
   102   151   150    1
   103   177   178   ar
   104   177   179   ar
   105    42    41    1
   106   178   180   ar
   107   149   150    1
   108   135   136    1
   109    35    36   ar
   110    35    33   ar
   111   179   181   ar
   112   180   182   ar
   113   150   153    1
   114    36    34   ar
   115   136   137   ar
   116   136   138   ar
   117   181   182   ar
   118   137   139   ar
   119    33    30   ar
   120    41    38    1
   121    74    73    1
   122   138   141   ar
   123   138   140   ar
   124   139   140   ar
   125   141   143   ar
   126   153   154    1
   127    38    39    1
   128    38    37    1
   129    39    40    2
   130    34    32   ar
   131   140   142   ar
   132    71    70    2
   133    30    32   ar
   134    30    28   ar
   135    15    16    1
   136    15    12    1
   137   143   144   ar
   138    11    12    1
   139    72    73    1
   140    72    69    1
   141    73    75    1
   142   154   155    1
   143   142   144   ar
   144    32    31   ar
   145    26    25    2
   146    16    18   ar
   147    16    17   ar
   148    70    69    1
   149    18    20   ar
   150    27    28    1
   151    27    24    1
   152    12    13    1
   153    28    29   ar
   154   156   155   ar
   155    69    68    1
   156    17    19   ar
   157   155   157   ar
   158    20    21   ar
   159    14    13    2
   160    31    29   ar
   161    63    62    2
   162    25    24    1
   163    19    21   ar
   164    21    22    1
   165    24    23    1
   166    68    62   am
   167    62    61    1
   168    50    47    1
   169    50    51    1
   170    47    46    1
   171    47    48    1
   172    61    64    1
   173    61    60    1
   174    83    81    1
   175    82    80    1
   176    51    52   ar
   177    51    53   ar
   178    52    54   ar
   179    64    65    1
   180    80    81    1
   181    80    77    1
   182    49    48    2
   183    65    67   am
   184    65    66    2
   185    79    78    2
   186    54    55   ar
   187    53    56   ar
   188    53    55   ar
   189    76    77    1
   190    77    78    1
   191    56    58   ar
   192    55    57   ar
   193    58    59   ar
   194    57    59   ar
