@<TRIPOS>MOLECULE
tmp/1uvtB00.pdb
 194 195 0 0 0
SMALL
GASTEIGER

@<TRIPOS>ATOM
      1  N         53.6370   67.4730   41.6400 N.3    43  HIS43      -0.1241
      2  CA        54.4590   66.3240   42.0320 C.3    43  HIS43       0.1621
      3  C         55.2700   65.7310   40.8930 C.2    43  HIS43       0.2264
      4  O         56.0880   64.8350   41.0970 O.2    43  HIS43      -0.2867
      5  CB        53.6310   65.2530   42.7690 C.3    43  HIS43       0.0745
      6  CG        52.9320   64.2680   41.8790 C.ar   43  HIS43       0.0817
      7  ND1       51.6090   64.3630   41.5070 N.ar   43  HIS43      -0.2268
      8  CD2       53.3630   63.0820   41.3790 C.ar   43  HIS43       0.1154
      9  CE1       51.2850   63.2560   40.8270 C.ar   43  HIS43       0.1986
     10  NE2       52.3180   62.4450   40.7200 N.ar   43  HIS43      -0.2212
     11  N         58.9700   66.9640   44.4470 N.3    47  TYR47      -0.1241
     12  CA        58.5440   66.0130   45.4600 C.3    47  TYR47       0.1605
     13  C         59.8110   65.4800   46.1020 C.2    47  TYR47       0.2264
     14  O         60.3170   64.4180   45.7250 O.2    47  TYR47      -0.2867
     15  CB        57.7280   64.8710   44.8710 C.3    47  TYR47       0.0534
     16  CG        57.1020   64.0250   45.9530 C.ar   47  TYR47      -0.0201
     17  CD1       56.1580   64.5700   46.8240 C.ar   47  TYR47      -0.0009
     18  CD2       57.4880   62.6990   46.1430 C.ar   47  TYR47      -0.0009
     19  CE1       55.6170   63.8220   47.8570 C.ar   47  TYR47       0.0417
     20  CE2       56.9530   61.9420   47.1740 C.ar   47  TYR47       0.0417
     21  CZ        56.0200   62.5110   48.0290 C.ar   47  TYR47       0.1957
     22  OH        55.5020   61.7690   49.0640 O.3    47  TYR47      -0.2866
     23  N         61.1560   61.7740   47.0860 N.3    50  TRP50      -0.1241
     24  CA        61.6290   60.8800   46.0310 C.3    50  TRP50       0.1605
     25  C         62.8220   61.4900   45.3040 C.2    50  TRP50       0.2264
     26  O         63.3250   60.9210   44.3370 O.2    50  TRP50      -0.2867
     27  CB        60.5180   60.5940   45.0250 C.3    50  TRP50       0.0550
     28  CG        59.3740   59.7960   45.5640 C.ar   50  TRP50       0.0003
     29  CD1       59.2840   59.2010   46.7900 C.ar   50  TRP50       0.0946
     30  CD2       58.1490   59.4970   44.8820 C.ar   50  TRP50       0.0152
     31  NE1       58.0810   58.5500   46.9130 N.ar   50  TRP50      -0.2442
     32  CE2       57.3650   58.7140   45.7570 C.ar   50  TRP50       0.0810
     33  CE3       57.6410   59.8140   43.6150 C.ar   50  TRP50       0.0012
     34  CZ2       56.0970   58.2430   45.4080 C.ar   50  TRP50       0.0191
     35  CZ3       56.3800   59.3460   43.2670 C.ar   50  TRP50       0.0001
     36  CH2       55.6230   58.5670   44.1630 C.ar   50  TRP50       0.0015
     37  N         53.5050   69.1310   49.8490 N.3    92  TRP92      -0.1241
     38  CA        54.0750   67.8430   49.4690 C.3    92  TRP92       0.1605
     39  C         54.4030   66.9460   50.6500 C.2    92  TRP92       0.2264
     40  O         54.4750   65.7210   50.5140 O.2    92  TRP92      -0.2867
     41  CB        55.3210   68.0310   48.5980 C.3    92  TRP92       0.0550
     42  CG        56.3620   68.9020   49.2020 C.ar   92  TRP92       0.0003
     43  CD1       56.5130   70.2450   49.0190 C.ar   92  TRP92       0.0946
     44  CD2       57.4080   68.4960   50.0870 C.ar   92  TRP92       0.0152
     45  NE1       57.5900   70.7000   49.7340 N.ar   92  TRP92      -0.2442
     46  CE2       58.1590   69.6480   50.4010 C.ar   92  TRP92       0.0810
     47  CE3       57.7830   67.2690   50.6480 C.ar   92  TRP92       0.0012
     48  CZ2       59.2640   69.6120   51.2530 C.ar   92  TRP92       0.0191
     49  CZ3       58.8790   67.2320   51.4960 C.ar   92  TRP92       0.0001
     50  CH2       59.6070   68.3990   51.7910 C.ar   92  TRP92       0.0015
     51  N         52.6090   66.0960   53.2250 N.3    94  GLU94      -0.1231
     52  CA        51.4110   65.7330   53.9660 C.3    94  GLU94       0.1699
     53  C         50.3590   65.0120   53.1280 C.2    94  GLU94       0.2592
     54  O         50.2000   63.8000   53.2450 O.2    94  GLU94      -0.2718
     55  CB        50.7860   66.9540   54.6540 C.3    94  GLU94       0.0402
     56  CG        49.7600   66.5840   55.7260 C.3    94  GLU94       0.1161
     57  CD        48.9570   67.7710   56.2310 C.2    94  GLU94       0.3649
     58  OE1       49.5320   68.8740   56.3680 O.co2  94  GLU94      -0.2457
     59  OE2       47.7460   67.5920   56.4980 O.co2  94  GLU94      -0.2457
     60  N         49.6480   65.7440   52.2790 N.am   95  ASN95      -0.1960
     61  CA        48.5980   65.1330   51.4700 C.3    95  ASN95       0.1819
     62  C         48.5720   65.5490   49.9950 C.2    95  ASN95       0.2621
     63  O         47.6330   65.2060   49.2740 O.2    95  ASN95      -0.2715
     64  CB        47.2340   65.4120   52.1170 C.3    95  ASN95       0.1195
     65  CG        46.9550   66.9010   52.2970 C.2    95  ASN95       0.2630
     66  OD1       47.7940   67.7530   51.9940 O.2    95  ASN95      -0.2716
     67  ND2       45.7750   67.2170   52.8000 N.am   95  ASN95      -0.0877
     68  N         49.6240   66.2350   49.5450 N.am   96  LEU96      -0.1977
     69  CA        49.7330   66.7280   48.1670 C.3    96  LEU96       0.1596
     70  C         48.6340   67.7350   47.8320 C.2    96  LEU96       0.2287
     71  O         48.1020   67.7470   46.7180 O.2    96  LEU96      -0.2864
     72  CB        49.7220   65.5860   47.1430 C.3    96  LEU96       0.0297
     73  CG        50.9680   64.7200   47.0220 C.3    96  LEU96       0.0022
     74  CD1       50.7950   63.7930   45.8440 C.3    96  LEU96       0.0001
     75  CD2       52.1930   65.5840   46.8300 C.3    96  LEU96       0.0001
     76  N         44.7170   59.3230   54.1220 N.3   172  ILE172     -0.1245
     77  CA        45.2290   60.6350   53.7340 C.3   172  ILE172      0.1561
     78  C         44.1300   61.6690   53.9540 C.2   172  ILE172      0.2260
     79  O         42.9480   61.3670   53.7640 O.2   172  ILE172     -0.2867
     80  CB        45.6450   60.6610   52.2380 C.3   172  ILE172      0.0252
     81  CG1       46.5390   59.4630   51.8970 C.3   172  ILE172      0.0019
     82  CG2       46.3700   61.9630   51.9150 C.3   172  ILE172      0.0019
     83  CD1       47.8860   59.4750   52.5650 C.3   172  ILE172      0.0001
     84  N         41.6750   52.9300   36.0870 N.3   192  ASP192     -0.1225
     85  CA        42.3190   53.9330   36.9320 C.3   192  ASP192      0.1805
     86  C         43.5840   54.4260   36.2440 C.2   192  ASP192      0.2598
     87  O         44.0980   53.7680   35.3400 O.2   192  ASP192     -0.2718
     88  CB        42.6860   53.3020   38.2890 C.3   192  ASP192      0.1424
     89  CG        43.2430   54.3080   39.2970 C.2   192  ASP192      0.3668
     90  OD1       42.9150   55.5080   39.2300 O.co2 192  ASP192     -0.2456
     91  OD2       44.0040   53.8800   40.1870 O.co2 192  ASP192     -0.2456
     92  N         44.0390   55.6180   36.6190 N.am  193  ALA193     -0.1966
     93  CA        45.2740   56.1660   36.0800 C.3   193  ALA193      0.1728
     94  C         46.3580   55.3410   36.7650 C.2   193  ALA193      0.2616
     95  O         46.0460   54.5090   37.6150 O.2   193  ALA193     -0.2715
     96  CB        45.4070   57.6300   36.4500 C.3   193  ALA193      0.0334
     97  N         47.6190   55.5650   36.4190 N.am  194  CYS194     -0.1954
     98  CA        48.7090   54.8100   37.0300 C.3   194  CYS194      0.1843
     99  C         50.0200   55.5600   36.8300 C.2   194  CYS194      0.2625
    100  O         50.0150   56.7110   36.3940 O.2   194  CYS194     -0.2714
    101  CB        48.7760   53.3870   36.4510 C.3   194  CYS194      0.0997
    102  SG        49.7940   52.1870   37.3880 S.3   194  CYS194     -0.0797
    103  N         51.1340   54.9210   37.1650 N.am  195  GLU195     -0.1977
    104  CA        52.4470   55.5460   37.0470 C.3   195  GLU195      0.1602
    105  C         52.6820   56.0740   35.6430 C.2   195  GLU195      0.2287
    106  O         52.5570   55.3340   34.6680 O.2   195  GLU195     -0.2864
    107  CB        53.5420   54.5460   37.4130 C.3   195  GLU195      0.0415
    108  CG        54.8860   55.1890   37.7050 C.3   195  GLU195      0.1163
    109  CD        56.0270   54.1870   37.7700 C.2   195  GLU195      0.3649
    110  OE1       55.7790   52.9900   38.0450 O.co2 195  GLU195     -0.2457
    111  OE2       57.1810   54.6050   37.5370 O.co2 195  GLU195     -0.2457
    112  N         50.3700   60.7720   35.9730 N.3   198  SER198     -0.1217
    113  CA        50.3480   61.9810   36.8040 C.3   198  SER198      0.1889
    114  C         50.4990   63.2420   35.9570 C.2   198  SER198      0.2288
    115  O         51.3620   63.3040   35.0830 O.2   198  SER198     -0.2866
    116  CB        51.4800   61.9460   37.8280 C.3   198  SER198      0.2089
    117  OG        51.4470   60.7650   38.6060 O.3   198  SER198     -0.2183
    118  N         45.3780   64.6340   37.0500 N.3   218  VAL218     -0.1231
    119  CA        45.7070   63.3540   37.6650 C.3   218  VAL218      0.1692
    120  C         46.7310   63.6080   38.7650 C.2   218  VAL218      0.2593
    121  O         47.8450   64.0710   38.5040 O.2   218  VAL218     -0.2718
    122  CB        46.2570   62.3510   36.6310 C.3   218  VAL218      0.0266
    123  CG1       46.7270   61.0780   37.3230 C.3   218  VAL218      0.0020
    124  CG2       45.1820   62.0240   35.6100 C.3   218  VAL218      0.0020
    125  N         46.3220   63.3410   39.9980 N.am  219  SER219     -0.1938
    126  CA        47.1660   63.5630   41.1560 C.3   219  SER219      0.2055
    127  C         47.6800   62.2350   41.7240 C.2   219  SER219      0.2643
    128  O         48.1990   61.3940   40.9800 O.2   219  SER219     -0.2714
    129  CB        46.3760   64.3800   42.1920 C.3   219  SER219      0.2130
    130  OG        47.2020   64.9060   43.2150 O.3   219  SER219     -0.2179
    131  N         47.5360   62.0400   43.0300 N.am  220  TRP220     -0.1959
    132  CA        48.0100   60.8280   43.6930 C.3   220  TRP220      0.1771
    133  C         46.9960   59.6870   43.7560 C.2   220  TRP220      0.2620
    134  O         45.7940   59.8820   43.5550 O.2   220  TRP220     -0.2715
    135  CB        48.4960   61.1600   45.1070 C.3   220  TRP220      0.0590
    136  CG        47.4120   61.6770   46.0110 C.ar  220  TRP220      0.0006
    137  CD1       47.0130   62.9750   46.1600 C.ar  220  TRP220      0.0946
    138  CD2       46.5880   60.9020   46.8890 C.ar  220  TRP220      0.0152
    139  NE1       45.9920   63.0550   47.0740 N.ar  220  TRP220     -0.2442
    140  CE2       45.7110   61.7970   47.5370 C.ar  220  TRP220      0.0810
    141  CE3       46.5060   59.5350   47.1900 C.ar  220  TRP220      0.0012
    142  CZ2       44.7620   61.3690   48.4700 C.ar  220  TRP220      0.0191
    143  CZ3       45.5640   59.1110   48.1140 C.ar  220  TRP220      0.0001
    144  CH2       44.7040   60.0260   48.7440 C.ar  220  TRP220      0.0015
    145  N         47.5050   58.4990   44.0680 N.am  221  GLY221     -0.1940
    146  CA        46.6800   57.3120   44.1780 C.3   221  GLY221      0.2014
    147  C         47.5070   56.2530   44.8740 C.2   221  GLY221      0.2639
    148  O         48.7020   56.1350   44.6130 O.2   221  GLY221     -0.2714
    149  N         46.8900   55.5150   45.7870 N.am  222  GLU222     -0.1963
    150  CA        47.5760   54.4650   46.5280 C.3   222  GLU222      0.1733
    151  C         47.4500   53.1460   45.7760 C.2   222  GLU222      0.2617
    152  O         46.6350   52.2890   46.1240 O.2   222  GLU222     -0.2715
    153  CB        46.9670   54.3510   47.9230 C.3   222  GLU222      0.0429
    154  CG        47.0630   55.6410   48.7210 C.3   222  GLU222      0.1163
    155  CD        45.9820   55.7700   49.7710 C.2   222  GLU222      0.3649
    156  OE1       44.7860   55.7080   49.4100 O.co2 222  GLU222     -0.2457
    157  OE2       46.3290   55.9570   50.9550 O.co2 222  GLU222     -0.2457
    158  N         48.2720   52.9850   44.7480 N.am  223  GLY223     -0.1940
    159  CA        48.2250   51.7800   43.9400 C.3   223  GLY223      0.2014
    160  C         47.4590   52.0710   42.6630 C.2   223  GLY223      0.2639
    161  O         46.9020   53.1590   42.5010 O.2   223  GLY223     -0.2714
    162  N         47.4250   51.1170   41.7450 N.am  224  CYS224     -0.1967
    163  CA        46.7130   51.3280   40.4970 C.3   224  CYS224      0.1712
    164  C         45.5520   50.3580   40.3730 C.2   224  CYS224      0.2296
    165  O         45.7490   49.1440   40.3890 O.2   224  CYS224     -0.2864
    166  CB        47.6540   51.1610   39.3020 C.3   224  CYS224      0.0983
    167  SG        49.0710   52.3020   39.2850 S.3   224  CYS224     -0.0798
    168  N         41.2800   56.9240   42.6880 N.3   231  GLY231     -0.1210
    169  CA        42.3520   57.7880   42.2280 C.3   231  GLY231      0.1956
    170  C         41.9790   59.2210   42.5270 C.2   231  GLY231      0.2612
    171  O         40.8120   59.5960   42.3910 O.2   231  GLY231     -0.2717
    172  N         42.9510   60.0250   42.9360 N.am  232  PHE232     -0.1962
    173  CA        42.6690   61.4090   43.2590 C.3   232  PHE232      0.1771
    174  C         43.0850   62.3960   42.1930 C.2   232  PHE232      0.2619
    175  O         44.0640   62.1810   41.4800 O.2   232  PHE232     -0.2715
    176  CB        43.2410   61.7610   44.6230 C.3   232  PHE232      0.0574
    177  CG        42.4140   61.2370   45.7560 C.ar  232  PHE232     -0.0200
    178  CD1       42.4890   59.9000   46.1270 C.ar  232  PHE232     -0.0042
    179  CD2       41.5070   62.0680   46.4090 C.ar  232  PHE232     -0.0042
    180  CE1       41.6720   59.3920   47.1290 C.ar  232  PHE232     -0.0003
    181  CE2       40.6880   61.5730   47.4060 C.ar  232  PHE232     -0.0003
    182  CZ        40.7690   60.2300   47.7690 C.ar  232  PHE232     -0.0000
    183  N         42.3050   63.4660   42.0730 N.am  233  TYR233     -0.1974
    184  CA        42.5270   64.5010   41.0730 C.3   233  TYR233      0.1639
    185  C         42.5010   65.9000   41.6730 C.2   233  TYR233      0.2290
    186  O         41.6840   66.2000   42.5480 O.2   233  TYR233     -0.2864
    187  CB        41.4460   64.4040   39.9830 C.3   233  TYR233      0.0560
    188  CG        41.3980   63.0570   39.2970 C.ar  233  TYR233     -0.0198
    189  CD1       40.7170   61.9830   39.8710 C.ar  233  TYR233     -0.0009
    190  CD2       42.1050   62.8310   38.1190 C.ar  233  TYR233     -0.0009
    191  CE1       40.7540   60.7190   39.2940 C.ar  233  TYR233      0.0417
    192  CE2       42.1480   61.5700   37.5370 C.ar  233  TYR233      0.0417
    193  CZ        41.4740   60.5200   38.1320 C.ar  233  TYR233      0.1957
    194  OH        41.5600   59.2660   37.5850 O.3   233  TYR233     -0.2866
@<TRIPOS>BOND
     1   106   105    2
     2   115   114    2
     3    87    86    2
     4   124   122    1
     5   105   104    1
     6   114   113    1
     7   112   113    1
     8    93    96    1
     9    93    92    1
    10    93    94    1
    11    84    85    1
    12    86    92   am
    13    86    85    1
    14   100    99    2
    15    97    94   am
    16    97    98    1
    17   101    98    1
    18   101   102    1
    19   122   123    1
    20   122   119    1
    21    94    95    2
    22   113   116    1
    23    99    98    1
    24    99   103   am
    25    85    88    1
    26   104   103    1
    27   104   107    1
    28   118   119    1
    29   102   167    1
    30   107   108    1
    31   111   109   ar
    32   192   190   ar
    33   192   193   ar
    34   194   193    1
    35   119   120    1
    36   108   109    1
    37   109   110   ar
    38   116   117    1
    39   190   188   ar
    40   193   191   ar
    41    88    89    1
    42   121   120    2
    43   120   125   am
    44    90    89   ar
    45   167   166    1
    46   191   189   ar
    47    89    91   ar
    48   188   189   ar
    49   188   187    1
    50   166   163    1
    51   187   184    1
    52   125   126    1
    53   164   165    2
    54   164   163    1
    55   163   162    1
    56    10     9   ar
    57    10     8   ar
    58     9     7   ar
    59     3     4    2
    60     3     2    1
    61   128   127    2
    62   184   185    1
    63   184   183    1
    64   126   127    1
    65   126   129    1
    66     8     6   ar
    67   175   174    2
    68     7     6   ar
    69     1     2    1
    70   185   186    2
    71   127   131   am
    72   162   160   am
    73     6     5    1
    74     2     5    1
    75   183   174   am
    76   129   130    1
    77   174   173    1
    78   169   170    1
    79   169   168    1
    80   171   170    2
    81   161   160    2
    82   170   172   am
    83   160   159    1
    84   172   173    1
    85   131   132    1
    86   173   176    1
    87    35    33   ar
    88    35    36   ar
    89   134   133    2
    90    33    30   ar
    91   132   133    1
    92   132   135    1
    93   133   145   am
    94   159   158    1
    95   145   146    1
    96    36    34   ar
    97   146   147    1
    98    26    25    2
    99    11    12    1
   100   148   147    2
   101   176   177    1
   102   158   151   am
   103    15    12    1
   104    15    16    1
   105   147   149   am
   106    30    28   ar
   107    30    32   ar
   108    27    28    1
   109    27    24    1
   110   135   136    1
   111    25    24    1
   112    34    32   ar
   113    12    13    1
   114    28    29   ar
   115    14    13    2
   116   177   178   ar
   117   177   179   ar
   118    32    31   ar
   119   151   152    2
   120   151   150    1
   121   149   150    1
   122    74    73    1
   123    16    18   ar
   124    16    17   ar
   125   136   137   ar
   126   136   138   ar
   127    24    23    1
   128   178   180   ar
   129    18    20   ar
   130   137   139   ar
   131   179   181   ar
   132   150   153    1
   133    71    70    2
   134    29    31   ar
   135    17    19   ar
   136    75    73    1
   137   138   141   ar
   138   138   140   ar
   139    73    72    1
   140   139   140   ar
   141   180   182   ar
   142    72    69    1
   143    20    21   ar
   144   141   143   ar
   145   181   182   ar
   146   140   142   ar
   147    70    69    1
   148    19    21   ar
   149   153   154    1
   150    21    22    1
   151   143   144   ar
   152    69    68    1
   153   142   144   ar
   154    41    42    1
   155    41    38    1
   156   154   155    1
   157    43    42   ar
   158    43    45   ar
   159    42    44   ar
   160    63    62    2
   161   156   155   ar
   162    38    37    1
   163    38    39    1
   164    68    62   am
   165    45    46   ar
   166   155   157   ar
   167    62    61    1
   168    44    46   ar
   169    44    47   ar
   170    46    48   ar
   171    40    39    2
   172    47    49   ar
   173    48    50   ar
   174    61    64    1
   175    61    60    1
   176    49    50   ar
   177    81    80    1
   178    81    83    1
   179    82    80    1
   180    66    65    2
   181    64    65    1
   182    80    77    1
   183    60    53   am
   184    65    67   am
   185    53    54    2
   186    53    52    1
   187    51    52    1
   188    77    78    1
   189    77    76    1
   190    79    78    2
   191    52    55    1
   192    55    56    1
   193    56    57    1
   194    57    58   ar
   195    57    59   ar
