@<TRIPOS>MOLECULE
tmp/1uvuB00.pdb
 173 172 0 0 0
SMALL
GASTEIGER

@<TRIPOS>ATOM
      1  N        -32.5000  -20.4800   42.1390 N.3    43  HIS43      -0.1241
      2  CA       -31.6240  -21.6180   42.3810 C.3    43  HIS43       0.1621
      3  C        -30.9350  -22.1770   41.1490 C.2    43  HIS43       0.2264
      4  O        -30.1230  -23.0730   41.2770 O.2    43  HIS43      -0.2867
      5  CB       -32.3100  -22.7260   43.1940 C.3    43  HIS43       0.0745
      6  CG       -33.1950  -23.6300   42.3970 C.ar   43  HIS43       0.0817
      7  ND1      -34.5660  -23.5850   42.4340 N.ar   43  HIS43      -0.2268
      8  CD2      -32.8900  -24.6980   41.6130 C.ar   43  HIS43       0.1154
      9  CE1      -35.0450  -24.6020   41.6980 C.ar   43  HIS43       0.1986
     10  NE2      -34.0690  -25.3160   41.1740 N.ar   43  HIS43      -0.2212
     11  N        -27.2500  -21.2730   44.4480 N.3    47  TYR47      -0.1241
     12  CA       -27.6760  -22.2800   45.4190 C.3    47  TYR47       0.1605
     13  C        -26.4770  -22.8170   46.1540 C.2    47  TYR47       0.2264
     14  O        -26.0240  -23.9220   45.8540 O.2    47  TYR47      -0.2867
     15  CB       -28.4000  -23.4640   44.7670 C.3    47  TYR47       0.0534
     16  CG       -29.2270  -24.2620   45.7720 C.ar   47  TYR47      -0.0201
     17  CD1      -30.4110  -23.7250   46.2940 C.ar   47  TYR47      -0.0009
     18  CD2      -28.8050  -25.5050   46.2500 C.ar   47  TYR47      -0.0009
     19  CE1      -31.1420  -24.3940   47.2750 C.ar   47  TYR47       0.0417
     20  CE2      -29.5410  -26.1810   47.2370 C.ar   47  TYR47       0.0417
     21  CZ       -30.7000  -25.6150   47.7480 C.ar   47  TYR47       0.1957
     22  OH       -31.3600  -26.2170   48.7960 O.3    47  TYR47      -0.2866
     23  N        -25.1300  -26.4370   47.3080 N.3    50  TRP50      -0.1241
     24  CA       -24.3680  -27.2470   46.3690 C.3    50  TRP50       0.1605
     25  C        -23.4360  -26.2420   45.6920 C.2    50  TRP50       0.2264
     26  O        -23.3400  -26.2270   44.4700 O.2    50  TRP50      -0.2867
     27  CB       -25.2930  -27.8580   45.3060 C.3    50  TRP50       0.0550
     28  CG       -26.4280  -28.6980   45.8340 C.ar   50  TRP50       0.0003
     29  CD1      -26.5520  -29.2180   47.0900 C.ar   50  TRP50       0.0946
     30  CD2      -27.5950  -29.1280   45.1090 C.ar   50  TRP50       0.0152
     31  NE1      -27.7190  -29.9440   47.1950 N.ar   50  TRP50      -0.2442
     32  CE2      -28.3780  -29.9080   45.9950 C.ar   50  TRP50       0.0810
     33  CE3      -28.0530  -28.9320   43.8000 C.ar   50  TRP50       0.0012
     34  CZ2      -29.5940  -30.4930   45.6160 C.ar   50  TRP50       0.0191
     35  CZ3      -29.2680  -29.5150   43.4210 C.ar   50  TRP50       0.0001
     36  CH2      -30.0220  -30.2870   44.3310 C.ar   50  TRP50       0.0015
     37  N        -23.1290  -23.2240   44.2430 N.3    52  LYS52      -0.1245
     38  CA       -23.4960  -22.7560   42.9100 C.3    52  LYS52       0.1561
     39  C        -23.7910  -21.2580   42.9700 C.2    52  LYS52       0.2260
     40  O        -24.7470  -20.8400   43.6160 O.2    52  LYS52      -0.2867
     41  CB       -24.7440  -23.4970   42.4440 C.3    52  LYS52       0.0271
     42  CG       -25.2140  -23.1010   41.0670 C.3    52  LYS52       0.0035
     43  CD       -26.6490  -23.5370   40.8470 C.3    52  LYS52       0.0206
     44  CE       -26.8480  -24.9850   41.2390 C.3    52  LYS52       0.1093
     45  NZ       -28.2470  -25.4350   41.0160 N.3    52  LYS52      -0.1314
     46  N        -36.9700  -22.4250   49.7590 N.3    96  LEU96      -0.1245
     47  CA       -36.9260  -21.8590   48.4130 C.3    96  LEU96       0.1561
     48  C        -37.9990  -20.7950   48.1720 C.2    96  LEU96       0.2260
     49  O        -38.6330  -20.7610   47.1090 O.2    96  LEU96      -0.2867
     50  CB       -37.0550  -22.9580   47.3630 C.3    96  LEU96       0.0270
     51  CG       -35.7900  -23.7460   47.1040 C.3    96  LEU96       0.0019
     52  CD1      -35.9800  -24.5420   45.8470 C.3    96  LEU96       0.0001
     53  CD2      -34.6390  -22.8010   46.9360 C.3    96  LEU96       0.0001
     54  N        -36.6120  -40.1050   37.5050 N.3   146  GLU146     -0.1245
     55  CA       -35.5120  -39.8250   38.4230 C.3   146  GLU146      0.1567
     56  C        -34.4340  -40.8990   38.5220 C.2   146  GLU146      0.2260
     57  O        -34.6780  -42.1060   38.3470 O.2   146  GLU146     -0.2867
     58  CB       -36.0500  -39.5030   39.8170 C.3   146  GLU146      0.0388
     59  CG       -35.2170  -38.4870   40.5900 C.3   146  GLU146      0.1160
     60  CD       -35.7950  -38.2070   41.9630 C.2   146  GLU146      0.3649
     61  OE1      -36.7280  -38.9430   42.3700 O.co2 146  GLU146     -0.2457
     62  OE2      -35.3230  -37.2590   42.6340 O.co2 146  GLU146     -0.2457
     63  N        -45.2370  -35.0160   35.8770 N.3   192  ASP192     -0.1225
     64  CA       -44.5870  -34.0780   36.7820 C.3   192  ASP192      0.1805
     65  C        -43.2900  -33.5170   36.1650 C.2   192  ASP192      0.2598
     66  O        -42.5970  -34.2000   35.4140 O.2   192  ASP192     -0.2718
     67  CB       -44.2590  -34.8070   38.0980 C.3   192  ASP192      0.1424
     68  CG       -43.6580  -33.8930   39.1590 C.2   192  ASP192      0.3668
     69  OD1      -43.7840  -32.6500   39.0580 O.co2 192  ASP192     -0.2456
     70  OD2      -43.0560  -34.4140   40.1240 O.co2 192  ASP192     -0.2456
     71  N        -42.9840  -32.2570   36.4570 N.am  193  ALA193     -0.1966
     72  CA       -41.7510  -31.6450   35.9980 C.3   193  ALA193      0.1728
     73  C        -40.7730  -32.3850   36.8670 C.2   193  ALA193      0.2616
     74  O        -41.1640  -33.1360   37.7560 O.2   193  ALA193     -0.2715
     75  CB       -41.7000  -30.1620   36.3420 C.3   193  ALA193      0.0334
     76  N        -39.5000  -32.1280   36.6730 N.am  194  CYS194     -0.1954
     77  CA       -38.5090  -32.8040   37.4640 C.3   194  CYS194      0.1843
     78  C        -37.3010  -31.9290   37.3700 C.2   194  CYS194      0.2625
     79  O        -37.2600  -31.0260   36.5410 O.2   194  CYS194     -0.2714
     80  CB       -38.2370  -34.1680   36.8570 C.3   194  CYS194      0.0997
     81  SG       -37.1530  -35.1990   37.8650 S.3   194  CYS194     -0.0797
     82  N        -36.3510  -32.1400   38.2600 N.am  195  GLU195     -0.1977
     83  CA       -35.1120  -31.3710   38.2630 C.3   195  GLU195      0.1602
     84  C        -34.6480  -31.1700   36.8240 C.2   195  GLU195      0.2287
     85  O        -34.8140  -32.0570   35.9710 O.2   195  GLU195     -0.2864
     86  CB       -34.0450  -32.1580   39.0130 C.3   195  GLU195      0.0415
     87  CG       -34.5740  -32.8170   40.2500 C.3   195  GLU195      0.1163
     88  CD       -33.4940  -33.4720   41.0400 C.2   195  GLU195      0.3649
     89  OE1      -32.4890  -32.7830   41.3350 O.co2 195  GLU195     -0.2457
     90  OE2      -33.6530  -34.6740   41.3590 O.co2 195  GLU195     -0.2457
     91  N        -36.5310  -27.2570   35.9260 N.3   198  SER198     -0.1217
     92  CA       -36.4420  -26.0450   36.7560 C.3   198  SER198      0.1889
     93  C        -36.2870  -24.7080   36.0300 C.2   198  SER198      0.2288
     94  O        -35.4640  -24.5790   35.1410 O.2   198  SER198     -0.2866
     95  CB       -35.2770  -26.1850   37.7430 C.3   198  SER198      0.2089
     96  OG       -35.3610  -27.3930   38.4830 O.3   198  SER198     -0.2183
     97  N        -41.3280  -23.6220   37.4520 N.3   218  VAL218     -0.1231
     98  CA       -40.9700  -24.8740   38.1280 C.3   218  VAL218      0.1692
     99  C        -39.8820  -24.5740   39.1740 C.2   218  VAL218      0.2593
    100  O        -38.8060  -24.0950   38.8300 O.2   218  VAL218     -0.2718
    101  CB       -40.4880  -25.9600   37.1190 C.3   218  VAL218      0.0266
    102  CG1      -40.1970  -27.2520   37.8400 C.3   218  VAL218      0.0020
    103  CG2      -41.5520  -26.2120   36.0550 C.3   218  VAL218      0.0020
    104  N        -40.1820  -24.8280   40.4510 N.am  219  SER219     -0.1938
    105  CA       -39.2580  -24.5230   41.5520 C.3   219  SER219      0.2055
    106  C        -38.6430  -25.7530   42.2230 C.2   219  SER219      0.2643
    107  O        -37.5410  -26.1720   41.8820 O.2   219  SER219     -0.2714
    108  CB       -39.9870  -23.6280   42.5770 C.3   219  SER219      0.2130
    109  OG       -39.1650  -23.1910   43.6410 O.3   219  SER219     -0.2179
    110  N        -39.3790  -26.3830   43.1230 N.am  220  TRP220     -0.1959
    111  CA       -38.8640  -27.5480   43.8340 C.3   220  TRP220      0.1771
    112  C        -39.8450  -28.7150   43.9190 C.2   220  TRP220      0.2620
    113  O        -40.8980  -28.7320   43.2890 O.2   220  TRP220     -0.2715
    114  CB       -38.4240  -27.1350   45.2300 C.3   220  TRP220      0.0590
    115  CG       -39.5180  -26.4940   46.0650 C.ar  220  TRP220      0.0006
    116  CD1      -39.9580  -25.2010   45.9920 C.ar  220  TRP220      0.0946
    117  CD2      -40.2260  -27.0930   47.1570 C.ar  220  TRP220      0.0152
    118  NE1      -40.8830  -24.9610   46.9840 N.ar  220  TRP220     -0.2442
    119  CE2      -41.0630  -26.1050   47.7090 C.ar  220  TRP220      0.0810
    120  CE3      -40.2230  -28.3680   47.7270 C.ar  220  TRP220      0.0012
    121  CZ2      -41.8820  -26.3470   48.7980 C.ar  220  TRP220      0.0191
    122  CZ3      -41.0370  -28.6140   48.8090 C.ar  220  TRP220      0.0001
    123  CH2      -41.8570  -27.6070   49.3370 C.ar  220  TRP220      0.0015
    124  N        -39.5040  -29.6960   44.7200 N.am  221  GLY221     -0.1940
    125  CA       -40.3650  -30.8450   44.8390 C.3   221  GLY221      0.2014
    126  C        -39.5710  -31.9350   45.5040 C.2   221  GLY221      0.2639
    127  O        -38.3790  -31.7780   45.7700 O.2   221  GLY221     -0.2714
    128  N        -40.2400  -33.0210   45.8300 N.am  222  GLU222     -0.1963
    129  CA       -39.5730  -34.1330   46.4460 C.3   222  GLU222      0.1733
    130  C        -39.7300  -35.2870   45.4710 C.2   222  GLU222      0.2617
    131  O        -40.8350  -35.7650   45.2080 O.2   222  GLU222     -0.2715
    132  CB       -40.1990  -34.3830   47.8000 C.3   222  GLU222      0.0429
    133  CG       -39.7470  -33.3320   48.8070 C.3   222  GLU222      0.1163
    134  CD       -40.7170  -33.1270   49.9550 C.2   222  GLU222      0.3649
    135  OE1      -41.9270  -33.3340   49.7540 O.co2 222  GLU222     -0.2457
    136  OE2      -40.2820  -32.7220   51.0530 O.co2 222  GLU222     -0.2457
    137  N        -38.6360  -35.5970   44.7880 N.am  223  GLY223     -0.1940
    138  CA       -38.6730  -36.6680   43.8170 C.3   223  GLY223      0.2014
    139  C        -39.2020  -36.2010   42.4770 C.2   223  GLY223      0.2639
    140  O        -39.0110  -35.0450   42.1030 O.2   223  GLY223     -0.2714
    141  N        -39.8480  -37.1000   41.7470 N.am  224  CYS224     -0.1967
    142  CA       -40.4000  -36.7890   40.4430 C.3   224  CYS224      0.1712
    143  C        -41.3810  -37.8990   40.1260 C.2   224  CYS224      0.2296
    144  O        -40.9790  -39.0220   39.8120 O.2   224  CYS224     -0.2864
    145  CB       -39.2990  -36.7300   39.3840 C.3   224  CYS224      0.0983
    146  SG       -38.1200  -35.3710   39.6400 S.3   224  CYS224     -0.0798
    147  N        -45.4640  -31.1440   42.8980 N.3   231  GLY231     -0.1210
    148  CA       -44.4040  -30.2040   42.5990 C.3   231  GLY231      0.1956
    149  C        -44.8100  -28.8160   42.9520 C.2   231  GLY231      0.2612
    150  O        -45.9830  -28.4860   42.8600 O.2   231  GLY231     -0.2717
    151  N        -43.8620  -28.0130   43.3920 N.am  232  PHE232     -0.1962
    152  CA       -44.1610  -26.6380   43.7300 C.3   232  PHE232      0.1771
    153  C        -43.6270  -25.7020   42.6550 C.2   232  PHE232      0.2619
    154  O        -42.6260  -25.9940   41.9690 O.2   232  PHE232     -0.2715
    155  CB       -43.5940  -26.2890   45.0940 C.3   232  PHE232      0.0574
    156  CG       -44.3400  -26.9280   46.2220 C.ar  232  PHE232     -0.0200
    157  CD1      -44.1070  -28.2600   46.5670 C.ar  232  PHE232     -0.0042
    158  CD2      -45.2730  -26.2030   46.9470 C.ar  232  PHE232     -0.0042
    159  CE1      -44.7920  -28.8520   47.6170 C.ar  232  PHE232     -0.0003
    160  CE2      -45.9600  -26.7780   47.9930 C.ar  232  PHE232     -0.0003
    161  CZ       -45.7260  -28.1040   48.3370 C.ar  232  PHE232     -0.0000
    162  N        -44.3090  -24.5770   42.4900 N.am  233  TYR233     -0.1974
    163  CA       -43.9380  -23.6120   41.4720 C.3   233  TYR233      0.1639
    164  C        -43.9090  -22.2180   42.0900 C.2   233  TYR233      0.2290
    165  O        -44.6340  -21.9580   43.0290 O.2   233  TYR233     -0.2864
    166  CB       -44.9660  -23.6660   40.3220 C.3   233  TYR233      0.0560
    167  CG       -45.1300  -25.0310   39.6610 C.ar  233  TYR233     -0.0198
    168  CD1      -45.5840  -26.1100   40.3750 C.ar  233  TYR233     -0.0009
    169  CD2      -44.8010  -25.2360   38.3270 C.ar  233  TYR233     -0.0009
    170  CE1      -45.7070  -27.3590   39.7950 C.ar  233  TYR233      0.0417
    171  CE2      -44.9170  -26.4870   37.7440 C.ar  233  TYR233      0.0417
    172  CZ       -45.3700  -27.5520   38.4890 C.ar  233  TYR233      0.1957
    173  OH       -45.4560  -28.8320   37.9580 O.3   233  TYR233     -0.2866
@<TRIPOS>BOND
     1    94    93    2
     2    66    65    2
     3    63    64    1
     4    91    92    1
     5    85    84    2
     6    72    75    1
     7    72    71    1
     8    72    73    1
     9    93    92    1
    10   103   101    1
    11    65    71   am
    12    65    64    1
    13    79    78    2
    14    76    73   am
    15    76    77    1
    16    92    95    1
    17    64    67    1
    18    84    83    1
    19    80    77    1
    20    80    81    1
    21    73    74    2
    22   101   102    1
    23   101    98    1
    24    78    77    1
    25    78    82   am
    26    97    98    1
    27    54    55    1
    28    95    96    1
    29   171   169   ar
    30   171   172   ar
    31    81   146    1
    32   173   172    1
    33    67    68    1
    34    98    99    1
    35    82    83    1
    36    83    86    1
    37   169   167   ar
    38    57    56    2
    39    55    56    1
    40    55    58    1
    41   172   170   ar
    42   100    99    2
    43    86    87    1
    44    69    68   ar
    45    68    70   ar
    46    99   104   am
    47   145   146    1
    48   145   142    1
    49   167   166    1
    50   167   168   ar
    51   170   168   ar
    52   144   143    2
    53    58    59    1
    54   143   142    1
    55    87    88    1
    56   166   163    1
    57   142   141    1
    58   104   105    1
    59    59    60    1
    60    43    42    1
    61    43    44    1
    62    45    44    1
    63    88    89   ar
    64    88    90   ar
    65    42    41    1
    66     3     4    2
    67     3     2    1
    68    10     8   ar
    69    10     9   ar
    70   163   164    1
    71   163   162    1
    72   105   106    1
    73   105   108    1
    74     8     6   ar
    75     9     7   ar
    76   141   139   am
    77   107   106    2
    78    60    61   ar
    79    60    62   ar
    80   154   153    2
    81   164   165    2
    82   140   139    2
    83     1     2    1
    84   106   110   am
    85     2     5    1
    86     6     7   ar
    87     6     5    1
    88    41    38    1
    89   139   138    1
    90   162   153   am
    91   108   109    1
    92   148   147    1
    93   148   149    1
    94   153   152    1
    95   150   149    2
    96    38    39    1
    97    38    37    1
    98   149   151   am
    99    39    40    2
   100   110   111    1
   101   113   112    2
   102   151   152    1
   103    35    33   ar
   104    35    36   ar
   105   152   155    1
   106    33    30   ar
   107   138   137    1
   108   111   112    1
   109   111   114    1
   110   112   124   am
   111    36    34   ar
   112    11    12    1
   113    26    25    2
   114   124   125    1
   115    15    12    1
   116    15    16    1
   117   137   130   am
   118   125   126    1
   119   155   156    1
   120    30    28   ar
   121    30    32   ar
   122   131   130    2
   123   114   115    1
   124    27    28    1
   125    27    24    1
   126    12    13    1
   127   130   129    1
   128   126   127    2
   129   126   128   am
   130    34    32   ar
   131    25    24    1
   132    16    18   ar
   133    16    17   ar
   134   128   129    1
   135    28    29   ar
   136    52    51    1
   137    14    13    2
   138   116   115   ar
   139   116   118   ar
   140    32    31   ar
   141   115   117   ar
   142   156   157   ar
   143   156   158   ar
   144    18    20   ar
   145    17    19   ar
   146    24    23    1
   147   129   132    1
   148   157   159   ar
   149    53    51    1
   150   158   160   ar
   151   118   119   ar
   152    29    31   ar
   153    51    50    1
   154    49    48    2
   155   117   119   ar
   156   117   120   ar
   157    20    21   ar
   158    19    21   ar
   159    50    47    1
   160   159   161   ar
   161   119   121   ar
   162   120   122   ar
   163    21    22    1
   164   132   133    1
   165   160   161   ar
   166    48    47    1
   167    47    46    1
   168   121   123   ar
   169   133   134    1
   170   122   123   ar
   171   135   134   ar
   172   134   136   ar
