@<TRIPOS>MOLECULE
tmp/1uvyA00.pdb
 235 226 0 0 0
SMALL
GASTEIGER

@<TRIPOS>ATOM
      1  N         43.6280   29.0800   28.7570 N.3    19  PHE19      -0.1227
      2  CA        45.0700   29.2560   28.9360 C.3    19  PHE19       0.1736
      3  C         45.7120   29.3970   27.5520 C.2    19  PHE19       0.2595
      4  O         46.3960   30.3900   27.2700 O.2    19  PHE19      -0.2718
      5  CB        45.6110   28.0210   29.6880 C.3    19  PHE19       0.0547
      6  CG        47.1000   28.0050   29.8870 C.ar   19  PHE19      -0.0202
      7  CD1       47.7570   29.0760   30.4830 C.ar   19  PHE19      -0.0042
      8  CD2       47.8430   26.8800   29.5150 C.ar   19  PHE19      -0.0042
      9  CE1       49.1190   29.0210   30.7070 C.ar   19  PHE19      -0.0003
     10  CE2       49.2030   26.8180   29.7330 C.ar   19  PHE19      -0.0003
     11  CZ        49.8470   27.8870   30.3320 C.ar   19  PHE19      -0.0000
     12  N         45.4900   28.4160   26.6830 N.am   20  TYR20      -0.1976
     13  CA        46.0410   28.4990   25.3410 C.3    20  TYR20       0.1639
     14  C         45.4310   29.6310   24.5290 C.2    20  TYR20       0.2290
     15  O         46.1140   30.2670   23.7240 O.2    20  TYR20      -0.2864
     16  CB        45.9120   27.1500   24.6230 C.3    20  TYR20       0.0560
     17  CG        46.9890   26.2320   25.1270 C.ar   20  TYR20      -0.0198
     18  CD1       46.6860   25.1470   25.9640 C.ar   20  TYR20      -0.0009
     19  CD2       48.3390   26.5630   24.9290 C.ar   20  TYR20      -0.0009
     20  CE1       47.6970   24.4260   26.6050 C.ar   20  TYR20       0.0417
     21  CE2       49.3610   25.8480   25.5670 C.ar   20  TYR20       0.0417
     22  CZ        49.0370   24.7810   26.4120 C.ar   20  TYR20       0.1957
     23  OH        50.0540   24.1090   27.0800 O.3    20  TYR20      -0.2866
     24  N         54.3730   35.7410   22.7810 N.3    29  VAL29      -0.1245
     25  CA        54.6210   34.2950   22.9780 C.3    29  VAL29       0.1561
     26  C         53.8530   33.4390   22.0020 C.2    29  VAL29       0.2260
     27  O         54.1700   32.2750   21.8190 O.2    29  VAL29      -0.2867
     28  CB        54.2130   33.7770   24.4130 C.3    29  VAL29       0.0252
     29  CG1       55.0650   34.4460   25.5030 C.3    29  VAL29       0.0019
     30  CG2       52.7100   34.0250   24.6690 C.3    29  VAL29       0.0019
     31  N         55.6980   30.7820   19.4380 N.3    32  PHE32      -0.1227
     32  CA        56.1580   29.4130   19.6700 C.3    32  PHE32       0.1736
     33  C         55.1060   28.3940   19.2430 C.2    32  PHE32       0.2595
     34  O         55.4290   27.3020   18.7820 O.2    32  PHE32      -0.2718
     35  CB        56.4920   29.1740   21.1480 C.3    32  PHE32       0.0547
     36  CG        57.5580   30.0850   21.7040 C.ar   32  PHE32      -0.0202
     37  CD1       57.2120   31.2740   22.3470 C.ar   32  PHE32      -0.0042
     38  CD2       58.9030   29.7180   21.6570 C.ar   32  PHE32      -0.0042
     39  CE1       58.1990   32.0810   22.9470 C.ar   32  PHE32      -0.0003
     40  CE2       59.8910   30.5150   22.2510 C.ar   32  PHE32      -0.0003
     41  CZ        59.5430   31.6950   22.8980 C.ar   32  PHE32      -0.0000
     42  N         53.8440   28.7670   19.3960 N.am   33  PHE33      -0.1976
     43  CA        52.7440   27.8840   19.0560 C.3    33  PHE33       0.1639
     44  C         52.2610   28.0010   17.6250 C.2    33  PHE33       0.2290
     45  O         51.1230   27.6130   17.3090 O.2    33  PHE33      -0.2864
     46  CB        51.5920   28.0910   20.0360 C.3    33  PHE33       0.0560
     47  CG        51.9280   27.6630   21.4310 C.ar   33  PHE33      -0.0200
     48  CD1       52.4320   28.5760   22.3520 C.ar   33  PHE33      -0.0042
     49  CD2       51.7930   26.3360   21.8080 C.ar   33  PHE33      -0.0042
     50  CE1       52.7960   28.1670   23.6280 C.ar   33  PHE33      -0.0003
     51  CE2       52.1570   25.9210   23.0790 C.ar   33  PHE33      -0.0003
     52  CZ        52.6570   26.8410   23.9880 C.ar   33  PHE33      -0.0000
     53  N         50.9790   24.8390   15.5860 N.3    36  ILE36      -0.1245
     54  CA        50.8640   23.8370   16.6350 C.3    36  ILE36       0.1561
     55  C         49.4040   23.4490   16.8080 C.2    36  ILE36       0.2260
     56  O         48.5170   24.3040   16.7110 O.2    36  ILE36      -0.2867
     57  CB        51.4170   24.3810   17.9680 C.3    36  ILE36       0.0252
     58  CG1       52.9370   24.5520   17.8560 C.3    36  ILE36       0.0019
     59  CG2       51.0470   23.4570   19.1160 C.3    36  ILE36       0.0019
     60  CD1       53.6670   23.2940   17.3370 C.3    36  ILE36       0.0001
     61  N         45.1370   19.7510   20.8330 N.3    40  ASN40      -0.1225
     62  CA        45.9740   18.6890   21.4070 C.3    40  ASN40       0.1785
     63  C         46.7770   19.2570   22.5550 C.2    40  ASN40       0.2597
     64  O         46.9670   18.6050   23.5870 O.2    40  ASN40      -0.2718
     65  CB        46.9130   18.0610   20.3650 C.3    40  ASN40       0.1169
     66  CG        47.8860   17.0460   20.9920 C.2    40  ASN40       0.2627
     67  OD1       48.9630   17.4130   21.4700 O.2    40  ASN40      -0.2716
     68  ND2       47.4980   15.7760   21.0100 N.am   40  ASN40      -0.0877
     69  N         47.2490   20.4800   22.3720 N.am   41  GLN41      -0.1979
     70  CA        47.9990   21.1380   23.4210 C.3    41  GLN41       0.1601
     71  C         47.0750   21.2370   24.6350 C.2    41  GLN41       0.2287
     72  O         47.4930   20.9920   25.7730 O.2    41  GLN41      -0.2864
     73  CB        48.4600   22.5340   22.9580 C.3    41  GLN41       0.0394
     74  CG        49.8110   22.5200   22.2550 C.3    41  GLN41       0.0908
     75  CD        50.9290   22.0490   23.1840 C.2    41  GLN41       0.2608
     76  OE1       51.5290   22.8480   23.9080 O.2    41  GLN41      -0.2717
     77  NE2       51.1920   20.7410   23.1860 N.am   41  GLN41      -0.0878
     78  N         46.6560   17.4850   26.2190 N.3    44  LYS44      -0.1231
     79  CA        47.8220   16.9340   26.8950 C.3    44  LYS44       0.1693
     80  C         48.0950   17.6980   28.1620 C.2    44  LYS44       0.2592
     81  O         48.2580   17.1040   29.2250 O.2    44  LYS44      -0.2718
     82  CB        49.0610   16.9740   25.9880 C.3    44  LYS44       0.0285
     83  CG        49.0880   15.9180   24.8690 C.3    44  LYS44       0.0035
     84  CD        49.1540   14.5030   25.4430 C.3    44  LYS44       0.0206
     85  CE        49.3600   13.4310   24.3590 C.3    44  LYS44       0.1093
     86  NZ        50.7380   13.4250   23.7490 N.3    44  LYS44      -0.1314
     87  N         48.1320   19.0200   28.0480 N.am   45  THR45      -0.1953
     88  CA        48.3990   19.8670   29.1960 C.3    45  THR45       0.1897
     89  C         47.3640   19.5960   30.2840 C.2    45  THR45       0.2313
     90  O         47.7000   19.4970   31.4750 O.2    45  THR45      -0.2863
     91  CB        48.3760   21.3610   28.7940 C.3    45  THR45       0.1794
     92  OG1       49.4470   21.6240   27.8820 O.3    45  THR45      -0.2208
     93  CG2       48.5270   22.2630   30.0170 C.3    45  THR45       0.0378
     94  N         48.2030   16.4990   32.0140 N.3    48  PHE48      -0.1227
     95  CA        49.3760   16.8010   32.8230 C.3    48  PHE48       0.1736
     96  C         49.0470   17.5320   34.1430 C.2    48  PHE48       0.2595
     97  O         49.5550   17.1690   35.2040 O.2    48  PHE48      -0.2718
     98  CB        50.3930   17.6230   31.9930 C.3    48  PHE48       0.0547
     99  CG        51.6490   17.9600   32.7520 C.ar   48  PHE48      -0.0202
    100  CD1       52.5970   16.9760   33.0310 C.ar   48  PHE48      -0.0042
    101  CD2       51.8320   19.2210   33.3050 C.ar   48  PHE48      -0.0042
    102  CE1       53.7050   17.2400   33.8670 C.ar   48  PHE48      -0.0003
    103  CE2       52.9390   19.4870   34.1410 C.ar   48  PHE48      -0.0003
    104  CZ        53.8700   18.4950   34.4200 C.ar   48  PHE48      -0.0000
    105  N         48.1980   18.5590   34.0740 N.am   49  LEU49      -0.1980
    106  CA        47.8700   19.3500   35.2540 C.3    49  LEU49       0.1596
    107  C         46.9890   18.6170   36.2530 C.2    49  LEU49       0.2287
    108  O         47.1490   18.7690   37.4740 O.2    49  LEU49      -0.2864
    109  CB        47.2440   20.6690   34.8110 C.3    49  LEU49       0.0297
    110  CG        48.3010   21.6070   34.2220 C.3    49  LEU49       0.0022
    111  CD1       47.6800   22.5920   33.2250 C.3    49  LEU49       0.0001
    112  CD2       48.9810   22.3430   35.3740 C.3    49  LEU49       0.0001
    113  N         50.4570   11.3590   35.1290 N.3    59  TRP59      -0.1241
    114  CA        51.0220   11.7020   33.8290 C.3    59  TRP59       0.1605
    115  C         51.8550   10.5970   33.2150 C.2    59  TRP59       0.2264
    116  O         52.7680   10.0690   33.8460 O.2    59  TRP59      -0.2867
    117  CB        51.8710   12.9720   33.9420 C.3    59  TRP59       0.0550
    118  CG        52.5550   13.3990   32.6560 C.ar   59  TRP59       0.0003
    119  CD1       53.9000   13.5150   32.4500 C.ar   59  TRP59       0.0946
    120  CD2       51.9280   13.8340   31.4350 C.ar   59  TRP59       0.0152
    121  NE1       54.1510   13.9990   31.1860 N.ar   59  TRP59      -0.2442
    122  CE2       52.9600   14.2040   30.5410 C.ar   59  TRP59       0.0810
    123  CE3       50.5960   13.9510   31.0100 C.ar   59  TRP59       0.0012
    124  CZ2       52.7050   14.6830   29.2510 C.ar   59  TRP59       0.0191
    125  CZ3       50.3420   14.4310   29.7220 C.ar   59  TRP59       0.0001
    126  CH2       51.3960   14.7910   28.8590 C.ar   59  TRP59       0.0015
    127  N         52.5160   10.7810   29.4150 N.3    61  GLY61      -0.1210
    128  CA        53.1810   11.4370   28.3000 C.3    61  GLY61       0.1956
    129  C         54.6780   11.6740   28.4050 C.2    61  GLY61       0.2611
    130  O         55.3280   11.3370   29.4070 O.2    61  GLY61      -0.2717
    131  N         55.2110   12.2850   27.3470 N.am   62  ARG62      -0.1979
    132  CA        56.6410   12.5930   27.1990 C.3    62  ARG62       0.1597
    133  C         57.2430   13.4310   28.3200 C.2    62  ARG62       0.2287
    134  O         56.5280   14.0310   29.1110 O.2    62  ARG62      -0.2864
    135  CB        56.8570   13.2560   25.8310 C.3    62  ARG62       0.0334
    136  CG        56.2470   12.3980   24.6930 C.3    62  ARG62       0.0492
    137  CD        56.1540   13.0870   23.3320 C.3    62  ARG62       0.2205
    138  NE        55.3410   12.3120   22.3830 N.pl3  62  ARG62      -0.0865
    139  CZ        54.0450   12.0560   22.5320 C.cat  62  ARG62       0.5346
    140  NH1       53.3910   12.5070   23.5930 N.pl3  62  ARG62       0.1354
    141  NH2       53.4020   11.3490   21.6140 N.pl3  62  ARG62       0.1354
    142  N         58.6440   16.5330   29.7950 N.3    64  LEU64      -0.1245
    143  CA        58.5400   17.9170   29.3840 C.3    64  LEU64       0.1561
    144  C         59.8910   18.5740   29.1740 C.2    64  LEU64       0.2260
    145  O         60.0470   19.3400   28.2260 O.2    64  LEU64      -0.2867
    146  CB        57.6980   18.7140   30.3790 C.3    64  LEU64       0.0270
    147  CG        56.2240   18.3130   30.4240 C.3    64  LEU64       0.0019
    148  CD1       55.4330   19.3200   31.2390 C.3    64  LEU64       0.0001
    149  CD2       55.6820   18.2490   29.0150 C.3    64  LEU64       0.0001
    150  N         60.6680   17.4880   25.8740 N.3    67  VAL67      -0.1231
    151  CA        59.7610   18.0310   24.8760 C.3    67  VAL67       0.1692
    152  C         60.1250   19.4440   24.4470 C.2    67  VAL67       0.2592
    153  O         60.1010   19.7590   23.2570 O.2    67  VAL67      -0.2718
    154  CB        58.3220   18.0500   25.4130 C.3    67  VAL67       0.0266
    155  CG1       57.4660   19.0180   24.6040 C.3    67  VAL67       0.0020
    156  CG2       57.7530   16.6420   25.3780 C.3    67  VAL67       0.0020
    157  N         60.4690   20.2840   25.4240 N.am   68  HIS68      -0.1976
    158  CA        60.8040   21.6930   25.1860 C.3    68  HIS68       0.1656
    159  C         62.2890   22.0710   24.9960 C.2    68  HIS68       0.2291
    160  O         62.6150   23.2680   25.0370 O.2    68  HIS68      -0.2864
    161  CB        60.2510   22.5600   26.3330 C.3    68  HIS68       0.0771
    162  CG        58.8160   22.3040   26.6640 C.ar   68  HIS68       0.0820
    163  ND1       58.4200   21.3310   27.5570 N.ar   68  HIS68      -0.2267
    164  CD2       57.6810   22.9060   26.2400 C.ar   68  HIS68       0.1154
    165  CE1       57.1060   21.3500   27.6710 C.ar   68  HIS68       0.1986
    166  NE2       56.6320   22.2970   26.8820 N.ar   68  HIS68      -0.2212
    167  N         63.8670   25.4480   22.2640 N.3    71  MET71      -0.1245
    168  CA        62.5790   25.9550   21.8170 C.3    71  MET71       0.1570
    169  C         62.6440   27.4520   21.9400 C.2    71  MET71       0.2261
    170  O         61.7620   28.1740   21.4550 O.2    71  MET71      -0.2867
    171  CB        61.4530   25.3970   22.6810 C.3    71  MET71       0.0387
    172  CG        60.2270   24.9930   21.9200 C.3    71  MET71       0.0595
    173  SD        59.1250   24.1600   23.0390 S.3    71  MET71      -0.1393
    174  CE        58.7180   22.6760   22.1300 C.3    71  MET71       0.0692
    175  N         62.5270   29.2650   24.7240 N.3    73  VAL73      -0.1245
    176  CA        61.7630   29.9050   25.7760 C.3    73  VAL73       0.1561
    177  C         62.6690   30.5070   26.8430 C.2    73  VAL73       0.2260
    178  O         63.5690   29.8410   27.3530 O.2    73  VAL73      -0.2867
    179  CB        60.8070   28.9230   26.4430 C.3    73  VAL73       0.0252
    180  CG1       59.9530   29.6640   27.4240 C.3    73  VAL73       0.0019
    181  CG2       59.9600   28.2240   25.3870 C.3    73  VAL73       0.0019
    182  N         59.4480   35.1200   29.0990 N.3    77  GLN77      -0.1231
    183  CA        58.3950   34.4540   28.3520 C.3    77  GLN77       0.1698
    184  C         57.6590   33.3970   29.1910 C.2    77  GLN77       0.2592
    185  O         56.4300   33.3600   29.2000 O.2    77  GLN77      -0.2718
    186  CB        58.9650   33.8340   27.0740 C.3    77  GLN77       0.0381
    187  CG        59.3740   34.8720   26.0220 C.3    77  GLN77       0.0905
    188  CD        60.5590   34.4140   25.1960 C.2    77  GLN77       0.2608
    189  OE1       61.3980   33.6740   25.6860 O.2    77  GLN77      -0.2717
    190  NE2       60.6530   34.8700   23.9540 N.am   77  GLN77      -0.0878
    191  N         58.3730   32.5430   29.9140 N.am   78  PHE78      -0.1976
    192  CA        57.6570   31.5480   30.7160 C.3    78  PHE78       0.1639
    193  C         56.7340   32.2730   31.6850 C.2    78  PHE78       0.2290
    194  O         55.5800   31.9030   31.8400 O.2    78  PHE78      -0.2864
    195  CB        58.5960   30.6570   31.5230 C.3    78  PHE78       0.0560
    196  CG        57.9060   29.4770   32.1580 C.ar   78  PHE78      -0.0200
    197  CD1       57.7310   28.2930   31.4480 C.ar   78  PHE78      -0.0042
    198  CD2       57.3920   29.5610   33.4490 C.ar   78  PHE78      -0.0042
    199  CE1       57.0560   27.2060   32.0050 C.ar   78  PHE78      -0.0003
    200  CE2       56.7100   28.4730   34.0140 C.ar   78  PHE78      -0.0003
    201  CZ        56.5470   27.2980   33.2860 C.ar   78  PHE78      -0.0000
    202  N         53.4860   33.3210   30.1860 N.3    81  VAL81      -0.1231
    203  CA        52.5440   32.2240   30.0590 C.3    81  VAL81       0.1692
    204  C         51.9250   31.9580   31.4460 C.2    81  VAL81       0.2591
    205  O         50.6930   31.8450   31.5870 O.2    81  VAL81      -0.2718
    206  CB        53.2530   30.9870   29.4860 C.3    81  VAL81       0.0266
    207  CG1       52.3540   29.7640   29.5040 C.3    81  VAL81       0.0020
    208  CG2       53.5820   31.2640   28.0600 C.3    81  VAL81       0.0020
    209  N         52.7570   31.9060   32.4850 N.am   82  ILE82      -0.1980
    210  CA        52.1920   31.7000   33.8030 C.3    82  ILE82       0.1595
    211  C         51.0770   32.7250   34.0310 C.2    82  ILE82       0.2287
    212  O         50.0210   32.3880   34.5270 O.2    82  ILE82      -0.2864
    213  CB        53.2530   31.8170   34.8870 C.3    82  ILE82       0.0276
    214  CG1       54.1330   30.5650   34.8560 C.3    82  ILE82       0.0022
    215  CG2       52.6010   31.9870   36.2560 C.3    82  ILE82       0.0022
    216  CD1       53.3560   29.2730   35.0400 C.3    82  ILE82       0.0001
    217  N         52.0110   24.9330   38.4960 N.3   106  ALA106     -0.1245
    218  CA        52.3930   25.1370   37.1190 C.3   106  ALA106      0.1562
    219  C         53.8520   25.5770   37.0480 C.2   106  ALA106      0.2260
    220  O         54.5710   25.1350   36.1630 O.2   106  ALA106     -0.2867
    221  CB        51.4930   26.1600   36.4880 C.3   106  ALA106      0.0290
    222  N         57.2700   23.4320   36.6050 N.3   109  VAL109     -0.1245
    223  CA        57.7820   22.9830   35.3130 C.3   109  VAL109      0.1561
    224  C         58.6130   24.0510   34.6190 C.2   109  VAL109      0.2260
    225  O         59.0550   23.8660   33.4730 O.2   109  VAL109     -0.2867
    226  CB        56.6090   22.5050   34.3710 C.3   109  VAL109      0.0252
    227  CG1       55.3430   22.2520   35.1940 C.3   109  VAL109      0.0019
    228  CG2       56.3180   23.5290   33.2630 C.3   109  VAL109      0.0019
    229  N         61.0080   23.8230   30.9340 N.3   113  VAL113     -0.1245
    230  CA        60.5860   24.5150   29.7260 C.3   113  VAL113      0.1561
    231  C         61.5410   25.6470   29.3290 C.2   113  VAL113      0.2260
    232  O         61.8020   25.8550   28.1320 O.2   113  VAL113     -0.2867
    233  CB        59.1570   25.0530   29.9160 C.3   113  VAL113      0.0252
    234  CG1       58.7940   26.0290   28.8010 C.3   113  VAL113      0.0019
    235  CG2       58.1880   23.8740   29.9530 C.3   113  VAL113      0.0019
@<TRIPOS>BOND
     1    53    54    1
     2    54    55    1
     3    54    57    1
     4    56    55    2
     5    45    44    2
     6    60    58    1
     7    44    43    1
     8    58    57    1
     9    57    59    1
    10    34    33    2
    11    43    42    1
    12    43    46    1
    13    33    42   am
    14    33    32    1
    15    31    32    1
    16    32    35    1
    17    46    47    1
    18    65    66    1
    19    65    62    1
    20    61    62    1
    21    66    68   am
    22    66    67    2
    23    35    36    1
    24    62    63    1
    25    47    49   ar
    26    47    48   ar
    27   170   169    2
    28   141   139    1
    29    38    36   ar
    30    38    40   ar
    31    36    37   ar
    32    49    51   ar
    33   168   169    1
    34   168   167    1
    35   168   171    1
    36    27    26    2
    37   172   171    1
    38   172   173    1
    39    26    25    1
    40   174   173    1
    41    40    41   ar
    42    74    73    1
    43    74    75    1
    44    37    39   ar
    45    48    50   ar
    46    69    63   am
    47    69    70    1
    48   138   139    2
    49   138   137    1
    50   139   140    1
    51    63    64    2
    52    24    25    1
    53    41    39   ar
    54    73    70    1
    55    25    28    1
    56    51    52   ar
    57    75    77   am
    58    75    76    2
    59   153   152    2
    60   137   136    1
    61    70    71    1
    62    50    52   ar
    63    15    14    2
    64    86    85    1
    65   190   188   am
    66    85    84    1
    67    28    30    1
    68    28    29    1
    69   152   151    1
    70   152   157   am
    71    14    13    1
    72   155   154    1
    73    16    17    1
    74    16    13    1
    75    71    72    2
    76   136   135    1
    77   175   176    1
    78    83    84    1
    79    83    82    1
    80   151   154    1
    81   151   150    1
    82    19    17   ar
    83    19    21   ar
    84   159   160    2
    85   159   158    1
    86    17    18   ar
    87   158   157    1
    88   158   161    1
    89   188   189    2
    90   188   187    1
    91    13    12    1
    92   156   154    1
    93   181   179    1
    94    21    22   ar
    95   176   179    1
    96   176   177    1
    97   135   132    1
    98    18    20   ar
    99    82    79    1
   100   187   186    1
   101    78    79    1
   102   164   162   ar
   103   164   166   ar
   104   161   162    1
   105    22    20   ar
   106    22    23    1
   107   179   180    1
   108   162   163   ar
   109    12     3   am
   110   177   178    2
   111   166   165   ar
   112    79    80    1
   113   186   183    1
   114   132   131    1
   115   132   133    1
   116     4     3    2
   117   131   129   am
   118     3     2    1
   119   163   165   ar
   120    92    91    1
   121    87    80   am
   122    87    88    1
   123   208   206    1
   124   232   231    2
   125    80    81    2
   126   145   144    2
   127   128   129    1
   128   128   127    1
   129   133   134    2
   130   183   182    1
   131   183   184    1
   132   129   130    2
   133     1     2    1
   134    91    88    1
   135    91    93    1
   136   234   233    1
   137   126   124   ar
   138   126   125   ar
   139     2     5    1
   140   149   147    1
   141   144   143    1
   142   184   185    2
   143   184   191   am
   144    88    89    1
   145   124   122   ar
   146   231   230    1
   147   143   142    1
   148   143   146    1
   149   206   207    1
   150   206   203    1
   151     8    10   ar
   152     8     6   ar
   153     5     6    1
   154   125   123   ar
   155   230   233    1
   156   230   229    1
   157    10    11   ar
   158     6     7   ar
   159   191   192    1
   160   233   235    1
   161   203   202    1
   162   203   204    1
   163    89    90    2
   164    11     9   ar
   165   146   147    1
   166   147   148    1
   167     7     9   ar
   168   122   121   ar
   169   122   120   ar
   170   192   195    1
   171   192   193    1
   172   123   120   ar
   173   121   119   ar
   174   120   118   ar
   175   204   205    2
   176   204   209   am
   177   197   199   ar
   178   197   196   ar
   179   195   196    1
   180   193   194    2
   181    98    99    1
   182    98    95    1
   183   199   201   ar
   184    94    95    1
   185   196   198   ar
   186   119   118   ar
   187   209   210    1
   188   118   117    1
   189    99   100   ar
   190    99   101   ar
   191    95    96    1
   192   100   102   ar
   193   115   114    1
   194   115   116    2
   195   111   110    1
   196   228   226    1
   197   201   200   ar
   198   101   103   ar
   199   198   200   ar
   200   225   224    2
   201   210   211    1
   202   210   213    1
   203   114   117    1
   204   114   113    1
   205   102   104   ar
   206   211   212    2
   207   105    96   am
   208   105   106    1
   209   103   104   ar
   210    96    97    2
   211   110   109    1
   212   110   112    1
   213   226   227    1
   214   226   223    1
   215   224   223    1
   216   109   106    1
   217   214   213    1
   218   214   216    1
   219   213   215    1
   220   106   107    1
   221   223   222    1
   222   220   219    2
   223   107   108    2
   224   221   218    1
   225   219   218    1
   226   218   217    1
