@<TRIPOS>MOLECULE
tmp/1uwcA01.pdb
 137 131 0 0 0
SMALL
GASTEIGER

@<TRIPOS>ATOM
      1  N         14.2590    0.6670    2.1550 N.3    25  TYR25      -0.1241
      2  CA        14.9850    1.8720    1.7510 C.3    25  TYR25       0.1605
      3  C         16.5210    1.7430    1.9620 C.2    25  TYR25       0.2264
      4  O         17.2590    2.6540    1.5310 O.2    25  TYR25      -0.2867
      5  CB        14.4680    3.0950    2.5160 C.3    25  TYR25       0.0534
      6  CG        13.0460    3.5670    2.1990 C.ar   25  TYR25      -0.0201
      7  CD1       11.9580    2.9800    2.8280 C.ar   25  TYR25      -0.0009
      8  CD2       12.8330    4.6120    1.3410 C.ar   25  TYR25      -0.0009
      9  CE1       10.6450    3.4590    2.6070 C.ar   25  TYR25       0.0417
     10  CE2       11.5330    5.1150    1.1020 C.ar   25  TYR25       0.0417
     11  CZ        10.4260    4.5340    1.7480 C.ar   25  TYR25       0.1957
     12  OH         9.1470    5.0640    1.5400 O.3    25  TYR25      -0.2866
     13  N          9.2060    6.0930   -2.1640 N.3    68  THR68      -0.1218
     14  CA         9.9330    7.0490   -3.0200 C.3    68  THR68       0.1862
     15  C         11.3830    7.2720   -2.5510 C.2    68  THR68       0.2287
     16  O         11.6180    7.6250   -1.3930 O.2    68  THR68      -0.2866
     17  CB         9.1720    8.4070   -3.0360 C.3    68  THR68       0.1770
     18  OG1        7.8880    8.2470   -3.6920 O.3    68  THR68      -0.2211
     19  CG2        9.9250    9.5200   -3.7750 C.3    68  THR68       0.0375
     20  N          9.4080   10.3970   -7.7270 N.3    74  LEU74      -0.1245
     21  CA         8.5830   11.6040   -7.5060 C.3    74  LEU74       0.1561
     22  C          7.7470   11.9840   -8.7360 C.2    74  LEU74       0.2260
     23  O          6.5920   12.4500   -8.5790 O.2    74  LEU74      -0.2867
     24  CB         9.4450   12.8150   -7.0590 C.3    74  LEU74       0.0270
     25  CG         9.9120   12.7220   -5.5920 C.3    74  LEU74       0.0019
     26  CD1       11.0550   13.6730   -5.3450 C.3    74  LEU74       0.0001
     27  CD2        8.7680   12.9850   -4.6180 C.3    74  LEU74       0.0001
     28  N          4.7660    9.6950   -8.6240 N.3    77  ASP77      -0.1225
     29  CA         3.8490   10.0980   -7.5430 C.3    77  ASP77       0.1805
     30  C          2.7780   11.1020   -8.0080 C.2    77  ASP77       0.2598
     31  O          1.6250   11.0280   -7.5510 O.2    77  ASP77      -0.2718
     32  CB         4.6210   10.7390   -6.3720 C.3    77  ASP77       0.1424
     33  CG         5.4370    9.7350   -5.5400 C.2    77  ASP77       0.3668
     34  OD1        4.9620    8.6090   -5.2430 O.co2  77  ASP77      -0.2456
     35  OD2        6.5860   10.0980   -5.0930 O.co2  77  ASP77      -0.2456
     36  N          3.1650   12.0590   -8.8780 N.am   78  THR78      -0.1953
     37  CA         2.2690   13.1700   -9.2260 C.3    78  THR78       0.1897
     38  C          1.5030   12.9650  -10.5390 C.2    78  THR78       0.2313
     39  O          0.7660   13.8710  -10.9590 O.2    78  THR78      -0.2863
     40  CB         2.9820   14.5220   -9.2220 C.3    78  THR78       0.1794
     41  OG1        4.0590   14.4830  -10.1450 O.3    78  THR78      -0.2208
     42  CG2        3.6090   14.8360   -7.8320 C.3    78  THR78       0.0378
     43  N         -1.6110   11.8280  -11.4860 N.3    80  TYR80      -0.1241
     44  CA        -2.9180   11.5450  -10.8880 C.3    80  TYR80       0.1605
     45  C         -3.9910   11.1650  -11.9280 C.2    80  TYR80       0.2264
     46  O         -5.1660   11.0220  -11.5770 O.2    80  TYR80      -0.2867
     47  CB        -3.4190   12.7740  -10.0800 C.3    80  TYR80       0.0534
     48  CG        -2.7140   13.1530   -8.7790 C.ar   80  TYR80      -0.0201
     49  CD1       -1.5380   12.5280   -8.3190 C.ar   80  TYR80      -0.0009
     50  CD2       -3.2370   14.1810   -8.0020 C.ar   80  TYR80      -0.0009
     51  CE1       -0.9400   12.9090   -7.0870 C.ar   80  TYR80       0.0417
     52  CE2       -2.6380   14.5590   -6.7910 C.ar   80  TYR80       0.0417
     53  CZ        -1.4840   13.9360   -6.3510 C.ar   80  TYR80       0.1957
     54  OH        -0.9280   14.3560   -5.1450 O.3    80  TYR80      -0.2866
     55  N         -4.3870    4.8440   -9.9340 N.3    97  HIS97      -0.1241
     56  CA        -3.4350    5.9490  -10.0260 C.3    97  HIS97       0.1621
     57  C         -2.4910    5.6870  -11.2190 C.2    97  HIS97       0.2264
     58  O         -1.8220    4.6350  -11.3000 O.2    97  HIS97      -0.2867
     59  CB        -2.6670    6.0610   -8.6920 C.3    97  HIS97       0.0745
     60  CG        -1.6400    7.1380   -8.6030 C.ar   97  HIS97       0.0817
     61  ND1       -0.4210    7.0500   -9.2590 N.ar   97  HIS97      -0.2268
     62  CD2       -1.6160    8.2740   -7.8500 C.ar   97  HIS97       0.1154
     63  CE1        0.3040    8.1060   -8.8850 C.ar   97  HIS97       0.1986
     64  NE2       -0.3900    8.8640   -8.0320 N.ar   97  HIS97      -0.2212
     65  N          1.4170    5.0270  -10.5230 N.3   100  TYR100     -0.1241
     66  CA         1.6610    3.7130   -9.9070 C.3   100  TYR100      0.1605
     67  C          1.3500    2.5420  -10.8620 C.2   100  TYR100      0.2264
     68  O          1.9930    1.5060  -10.7670 O.2   100  TYR100     -0.2867
     69  CB         0.9370    3.5680   -8.5290 C.3   100  TYR100      0.0534
     70  CG         1.3290    4.6750   -7.5400 C.ar  100  TYR100     -0.0201
     71  CD1        2.6470    5.1870   -7.4530 C.ar  100  TYR100     -0.0009
     72  CD2        0.3640    5.2660   -6.7010 C.ar  100  TYR100     -0.0009
     73  CE1        2.9710    6.2370   -6.5790 C.ar  100  TYR100      0.0417
     74  CE2        0.7040    6.3030   -5.8160 C.ar  100  TYR100      0.0417
     75  CZ         2.0100    6.7890   -5.7510 C.ar  100  TYR100      0.1957
     76  OH         2.3290    7.8300   -4.8740 O.3   100  TYR100     -0.2866
     77  N          4.1450    4.1610    1.5820 N.3   133  SER133     -0.1202
     78  CA         3.9130    5.3530    0.7240 C.3   133  SER133      0.2020
     79  C          3.8340    4.9030   -0.7760 C.2   133  SER133      0.2618
     80  O          2.9470    4.0960   -1.0750 O.2   133  SER133     -0.2717
     81  CB         4.9420    6.4540    1.0520 C.3   133  SER133      0.2103
     82  OG         4.5190    7.7330    0.6210 O.3   133  SER133     -0.2182
     83  N          4.6930    5.3370   -1.6930 N.am  134  LEU134     -0.1979
     84  CA         4.6320    4.7850   -3.0690 C.3   134  LEU134      0.1596
     85  C          4.6900    3.2490   -3.0390 C.2   134  LEU134      0.2287
     86  O          4.0260    2.5740   -3.8620 O.2   134  LEU134     -0.2864
     87  CB         5.7890    5.3720   -3.9250 C.3   134  LEU134      0.0297
     88  CG         6.1130    4.7190   -5.2940 C.3   134  LEU134      0.0022
     89  CD1        6.8210    5.7240   -6.1960 C.3   134  LEU134      0.0001
     90  CD2        6.9950    3.4680   -5.1870 C.3   134  LEU134      0.0001
     91  N         -1.2120    6.1250   -0.3330 N.3   161  PRO161     -0.2116
     92  CA        -2.0860    7.0300   -1.1170 C.3   161  PRO161      0.1372
     93  C         -3.4440    6.3720   -1.3980 C.2   161  PRO161      0.2244
     94  O         -3.6120    5.1550   -1.2190 O.2   161  PRO161     -0.2868
     95  CB        -1.3110    7.2050   -2.4550 C.3   161  PRO161      0.0268
     96  CG         0.1500    6.9480   -2.0870 C.3   161  PRO161      0.0207
     97  CD         0.0770    5.8440   -1.0190 C.3   161  PRO161      0.0892
     98  N         -0.0260   11.8700    3.1420 N.3   196  ILE196     -0.1245
     99  CA        -0.0770   11.0490    1.9360 C.3   196  ILE196      0.1561
    100  C         -1.4080   10.2850    1.7920 C.2   196  ILE196      0.2260
    101  O         -1.9210   10.1850    0.6550 O.2   196  ILE196     -0.2867
    102  CB         1.2110   10.1530    1.7700 C.3   196  ILE196      0.0252
    103  CG1        2.4700   11.0550    1.7560 C.3   196  ILE196      0.0019
    104  CG2        1.1250    9.2790    0.5280 C.3   196  ILE196      0.0019
    105  CD1        2.4700   12.1260    0.6880 C.3   196  ILE196      0.0001
    106  N         -4.0480   11.9950   -0.5180 N.3   199  LEU199     -0.1231
    107  CA        -3.6850   12.2430   -1.9250 C.3   199  LEU199      0.1678
    108  C         -3.8220   10.9750   -2.7950 C.2   199  LEU199      0.2434
    109  O         -3.4790    9.8760   -2.3350 O.2   199  LEU199     -0.2733
    110  CB        -2.2380   12.7370   -2.0530 C.3   199  LEU199      0.0284
    111  CG        -1.9090   14.0760   -1.3800 C.3   199  LEU199      0.0019
    112  CD1       -0.4080   14.3540   -1.4140 C.3   199  LEU199      0.0001
    113  CD2       -2.7170   15.2840   -1.9750 C.3   199  LEU199      0.0001
    114  N         -4.2720   11.1010   -4.0530 N.am  200  PRO200     -0.2729
    115  CA        -4.9660   12.2870   -4.6080 C.3   200  PRO200      0.1401
    116  C         -6.2420   12.6300   -3.8010 C.2   200  PRO200      0.2269
    117  O         -6.7830   11.7320   -3.1180 O.2   200  PRO200     -0.2865
    118  CB        -5.3280   11.8310   -6.0560 C.3   200  PRO200      0.0296
    119  CG        -4.3410   10.7430   -6.3650 C.3   200  PRO200      0.0237
    120  CD        -4.1960   10.0110   -5.0480 C.3   200  PRO200      0.0939
    121  N          4.1190   15.5320    2.1370 N.3   243  VAL243     -0.1245
    122  CA         5.1990   14.7580    2.7280 C.3   243  VAL243      0.1561
    123  C          5.5870   15.4730    3.9880 C.2   243  VAL243      0.2260
    124  O          6.2840   16.4590    3.9060 O.2   243  VAL243     -0.2867
    125  CB         6.3780   14.6030    1.7160 C.3   243  VAL243      0.0252
    126  CG1        7.5660   14.0040    2.3640 C.3   243  VAL243      0.0019
    127  CG2        5.9740   13.6900    0.6040 C.3   243  VAL243      0.0019
    128  N          4.4640   11.2750    8.0580 N.3   247  HIS247     -0.1241
    129  CA         4.6750   10.3600    6.9140 C.3   247  HIS247      0.1621
    130  C          5.9700    9.5500    7.0290 C.2   247  HIS247      0.2264
    131  O          6.0250    8.3840    6.5830 O.2   247  HIS247     -0.2867
    132  CB         4.6230   11.1860    5.5860 C.3   247  HIS247      0.0745
    133  CG         5.6270   10.8130    4.5420 C.ar  247  HIS247      0.0817
    134  ND1        5.4210    9.8070    3.6270 N.ar  247  HIS247     -0.2268
    135  CD2        6.8480   11.3360    4.2480 C.ar  247  HIS247      0.1154
    136  CE1        6.4730    9.7040    2.8320 C.ar  247  HIS247      0.1986
    137  NE2        7.3520   10.6250    3.1790 N.ar  247  HIS247     -0.2212
@<TRIPOS>BOND
     1    45    46    2
     2    45    44    1
     3    43    44    1
     4    58    57    2
     5    57    56    1
     6    39    38    2
     7    44    47    1
     8    67    68    2
     9    67    66    1
    10    38    37    1
    11    65    66    1
    12    41    40    1
    13    47    48    1
    14    56    55    1
    15    56    59    1
    16    66    69    1
    17    61    63   ar
    18    61    60   ar
    19    37    40    1
    20    37    36    1
    21    40    42    1
    22    63    64   ar
    23    36    30   am
    24    48    49   ar
    25    48    50   ar
    26    22    23    2
    27    22    21    1
    28    59    60    1
    29    28    29    1
    30    60    62   ar
    31    69    70    1
    32    49    51   ar
    33    64    62   ar
    34    30    31    2
    35    30    29    1
    36    50    52   ar
    37    20    21    1
    38    29    32    1
    39    70    71   ar
    40    70    72   ar
    41    21    24    1
    42    71    73   ar
    43    51    53   ar
    44    24    25    1
    45    52    53   ar
    46    72    74   ar
    47    73    75   ar
    48    32    33    1
    49   119   118    1
    50   119   120    1
    51    53    54    1
    52    89    88    1
    53   118   115    1
    54    74    75   ar
    55    75    76    1
    56    25    26    1
    57    25    27    1
    58    33    34   ar
    59    33    35   ar
    60    88    90    1
    61    88    87    1
    62   120   114    1
    63   115   114    1
    64   115   116    1
    65   114   108   am
    66    87    84    1
    67    86    85    2
    68   116   117    2
    69    19    17    1
    70    18    17    1
    71    84    85    1
    72    84    83    1
    73    17    14    1
    74    14    15    1
    75    14    13    1
    76   108   109    2
    77   108   107    1
    78    15    16    2
    79    95    96    1
    80    95    92    1
    81    96    97    1
    82   110   107    1
    83   110   111    1
    84   113   111    1
    85   107   106    1
    86    83    79   am
    87   112   111    1
    88    93    94    2
    89    93    92    1
    90    92    91    1
    91    80    79    2
    92    97    91    1
    93    79    78    1
    94   104   102    1
    95   127   125    1
    96    82    81    1
    97   101   100    2
    98   105   103    1
    99    78    81    1
   100    78    77    1
   101    10     8   ar
   102    10    11   ar
   103     8     6   ar
   104     4     3    2
   105    12    11    1
   106   125   126    1
   107   125   122    1
   108    11     9   ar
   109     2     3    1
   110     2     1    1
   111     2     5    1
   112   103   102    1
   113   102    99    1
   114   100    99    1
   115    99    98    1
   116   121   122    1
   117     6     5    1
   118     6     7   ar
   119     9     7   ar
   120   122   123    1
   121   136   137   ar
   122   136   134   ar
   123   137   135   ar
   124   134   133   ar
   125   124   123    2
   126   135   133   ar
   127   133   132    1
   128   132   129    1
   129   131   130    2
   130   129   130    1
   131   129   128    1
