@<TRIPOS>MOLECULE
tmp/1uwfA00.pdb
 119 113 0 0 0
SMALL
GASTEIGER

@<TRIPOS>ATOM
      1  N         10.0500   15.9690   32.5900 N.3     1  PHE1       -0.1241
      2  CA        10.2170   15.8340   31.1160 C.3     1  PHE1        0.1605
      3  C          9.4520   16.9170   30.3840 C.2     1  PHE1        0.2264
      4  O          8.2630   17.1130   30.6180 O.2     1  PHE1       -0.2867
      5  CB         9.7230   14.4640   30.6400 C.3     1  PHE1        0.0534
      6  CG         9.8430   14.2570   29.1530 C.ar    1  PHE1       -0.0203
      7  CD1        8.8320   14.6770   28.2910 C.ar    1  PHE1       -0.0042
      8  CD2       10.9760   13.6550   28.6140 C.ar    1  PHE1       -0.0042
      9  CE1        8.9450   14.5000   26.9110 C.ar    1  PHE1       -0.0003
     10  CE2       11.1040   13.4700   27.2370 C.ar    1  PHE1       -0.0003
     11  CZ        10.0870   13.8930   26.3830 C.ar    1  PHE1       -0.0000
     12  N          6.0120   20.1950   31.2890 N.3    13  ILE13      -0.1245
     13  CA         5.7140   18.9520   31.9810 C.3    13  ILE13       0.1561
     14  C          4.1990   18.7440   31.8700 C.2    13  ILE13       0.2260
     15  O          3.4240   19.6780   32.0800 O.2    13  ILE13      -0.2867
     16  CB         6.1230   19.0770   33.4740 C.3    13  ILE13       0.0252
     17  CG1        7.6470   18.9500   33.5950 C.3    13  ILE13       0.0019
     18  CG2        5.3770   18.0610   34.3290 C.3    13  ILE13       0.0019
     19  CD1        8.1950   19.3180   34.9640 C.3    13  ILE13       0.0001
     20  N         15.0110   15.0770   30.3740 N.3    46  ASN46      -0.1225
     21  CA        14.4830   14.4180   31.5640 C.3    46  ASN46       0.1785
     22  C         14.7360   15.3990   32.7180 C.2    46  ASN46       0.2597
     23  O         15.8550   15.8840   32.8920 O.2    46  ASN46      -0.2718
     24  CB        15.2520   13.1030   31.7950 C.3    46  ASN46       0.1169
     25  CG        14.7540   12.3240   32.9980 C.2    46  ASN46       0.2627
     26  OD1       14.3890   12.9010   34.0280 O.2    46  ASN46      -0.2716
     27  ND2       14.7620   10.9960   32.8830 N.am   46  ASN46      -0.0877
     28  N         13.6980   15.6990   33.4930 N.am   47  ASP47      -0.1960
     29  CA        13.8150   16.6390   34.6140 C.3    47  ASP47       0.1840
     30  C         14.3320   16.0430   35.9250 C.2    47  ASP47       0.2622
     31  O         14.6510   16.7820   36.8580 O.2    47  ASP47      -0.2715
     32  CB        12.4540   17.3030   34.8830 C.3    47  ASP47       0.1450
     33  CG        12.1710   18.4620   33.9420 C.2    47  ASP47       0.3671
     34  OD1       12.9960   19.3980   33.9030 O.co2  47  ASP47      -0.2456
     35  OD2       11.1320   18.4410   33.2480 O.co2  47  ASP47      -0.2456
     36  N         14.4270   14.7170   35.9930 N.am   48  TYR48      -0.1974
     37  CA        14.8650   14.0550   37.2220 C.3    48  TYR48       0.1639
     38  C         15.5620   12.7250   36.8940 C.2    48  TYR48       0.2290
     39  O         15.1920   11.6680   37.4170 O.2    48  TYR48      -0.2864
     40  CB        13.6190   13.8370   38.0950 C.3    48  TYR48       0.0560
     41  CG        13.8350   13.4030   39.5270 C.ar   48  TYR48      -0.0198
     42  CD1       15.0630   13.5730   40.1700 C.ar   48  TYR48      -0.0009
     43  CD2       12.7770   12.8650   40.2580 C.ar   48  TYR48      -0.0009
     44  CE1       15.2240   13.2140   41.5120 C.ar   48  TYR48       0.0417
     45  CE2       12.9250   12.5080   41.5890 C.ar   48  TYR48       0.0417
     46  CZ        14.1470   12.6830   42.2120 C.ar   48  TYR48       0.1957
     47  OH        14.2750   12.3190   43.5330 O.3    48  TYR48      -0.2866
     48  N         14.4040    9.0770   37.8700 N.3    52  ILE52      -0.1245
     49  CA        13.4550    8.6390   36.8550 C.3    52  ILE52       0.1561
     50  C         14.0140    8.3820   35.4580 C.2    52  ILE52       0.2260
     51  O         14.9410    9.0570   35.0050 O.2    52  ILE52      -0.2867
     52  CB        12.3100    9.6860   36.7230 C.3    52  ILE52       0.0252
     53  CG1       11.6370    9.8900   38.0870 C.3    52  ILE52       0.0019
     54  CG2       11.2910    9.2400   35.6680 C.3    52  ILE52       0.0019
     55  CD1       10.6030   11.0080   38.1030 C.3    52  ILE52       0.0001
     56  N         12.6990    8.2580   31.6150 N.3    54  ASP54      -0.1239
     57  CA        11.5880    8.6390   30.7560 C.3    54  ASP54       0.1674
     58  C         11.5570    7.8100   29.4820 C.2    54  ASP54       0.2266
     59  O         12.5980    7.5780   28.8640 O.2    54  ASP54      -0.2867
     60  CB        11.6820   10.1220   30.3960 C.3    54  ASP54       0.1410
     61  CG        11.3440   11.0200   31.5630 C.2    54  ASP54       0.3668
     62  OD1       10.4240   10.6630   32.3260 O.co2  54  ASP54      -0.2456
     63  OD2       11.9830   12.0790   31.7090 O.co2  54  ASP54      -0.2456
     64  N          5.0220   10.3300   26.2030 N.3   133  GLN133     -0.1245
     65  CA         6.0080   10.1780   27.2600 C.3   133  GLN133      0.1566
     66  C          5.4700    9.5250   28.5280 C.2   133  GLN133      0.2260
     67  O          4.4480    9.9390   29.0770 O.2   133  GLN133     -0.2867
     68  CB         6.6010   11.5500   27.6000 C.3   133  GLN133      0.0367
     69  CG         7.5810   11.5680   28.7690 C.3   133  GLN133      0.0905
     70  CD         6.9660   12.1330   30.0400 C.2   133  GLN133      0.2608
     71  OE1        6.2320   13.1180   29.9970 O.2   133  GLN133     -0.2717
     72  NE2        7.2790   11.5210   31.1790 N.am  133  GLN133     -0.0878
     73  N          7.0830    6.9240   32.0890 N.3   135  ASN135     -0.1240
     74  CA         8.2940    6.7280   32.8770 C.3   135  ASN135      0.1653
     75  C          8.2030    5.4670   33.7320 C.2   135  ASN135      0.2266
     76  O          7.2260    4.7240   33.6540 O.2   135  ASN135     -0.2867
     77  CB         8.5310    7.9390   33.7830 C.3   135  ASN135      0.1155
     78  CG         7.3900    8.1630   34.7610 C.2   135  ASN135      0.2627
     79  OD1        6.8590    7.2080   35.3340 O.2   135  ASN135     -0.2716
     80  ND2        7.0170    9.4260   34.9690 N.am  135  ASN135     -0.0877
     81  N          8.4560    5.7310   37.0080 N.3   137  TYR137     -0.1227
     82  CA         8.2390    6.3490   38.3120 C.3   137  TYR137      0.1736
     83  C          6.7860    6.4000   38.7980 C.2   137  TYR137      0.2595
     84  O          6.4990    6.0340   39.9410 O.2   137  TYR137     -0.2718
     85  CB         8.8120    7.7600   38.2740 C.3   137  TYR137      0.0548
     86  CG         8.7920    8.4940   39.5930 C.ar  137  TYR137     -0.0200
     87  CD1        9.6310    8.1110   40.6410 C.ar  137  TYR137     -0.0009
     88  CD2        7.9680    9.6030   39.7800 C.ar  137  TYR137     -0.0009
     89  CE1        9.6550    8.8250   41.8420 C.ar  137  TYR137      0.0417
     90  CE2        7.9810   10.3220   40.9750 C.ar  137  TYR137      0.0417
     91  CZ         8.8280    9.9290   41.9990 C.ar  137  TYR137      0.1957
     92  OH         8.8590   10.6500   43.1730 O.3   137  TYR137     -0.2866
     93  N          5.8770    6.8660   37.9460 N.am  138  ASN138     -0.1974
     94  CA         4.4630    6.9680   38.3150 C.3   138  ASN138      0.1688
     95  C          3.5480    6.7220   37.1200 C.2   138  ASN138      0.2292
     96  O          3.9870    6.1870   36.1060 O.2   138  ASN138     -0.2864
     97  CB         4.1760    8.3410   38.9530 C.3   138  ASN138      0.1181
     98  CG         4.5210    9.5060   38.0370 C.2   138  ASN138      0.2629
     99  OD1        4.7020   10.6380   38.4960 O.2   138  ASN138     -0.2716
    100  ND2        4.6040    9.2400   36.7420 N.am  138  ASN138     -0.0877
    101  N          2.2640    8.8560   35.0710 N.3   140  ASP140     -0.1239
    102  CA         2.3220    9.8830   34.0330 C.3   140  ASP140      0.1674
    103  C          2.3210    9.2700   32.6390 C.2   140  ASP140      0.2266
    104  O          3.1290    8.4010   32.3360 O.2   140  ASP140     -0.2867
    105  CB         3.5710   10.7450   34.1940 C.3   140  ASP140      0.1410
    106  CG         3.4710   11.7180   35.3540 C.2   140  ASP140      0.3668
    107  OD1        4.4590   12.4440   35.5820 O.co2 140  ASP140     -0.2456
    108  OD2        2.4200   11.7620   36.0340 O.co2 140  ASP140     -0.2456
    109  N          1.7670   11.2570   29.1130 N.3   142  PHE142     -0.1241
    110  CA         1.4890   12.5190   28.4300 C.3   142  PHE142      0.1605
    111  C          1.7490   12.5390   26.9320 C.2   142  PHE142      0.2264
    112  O          2.6190   11.8320   26.4290 O.2   142  PHE142     -0.2867
    113  CB         2.3310   13.6280   29.0670 C.3   142  PHE142      0.0534
    114  CG         2.1530   13.7600   30.5570 C.ar  142  PHE142     -0.0203
    115  CD1        3.2660   13.8200   31.3950 C.ar  142  PHE142     -0.0042
    116  CD2        0.8800   13.8620   31.1200 C.ar  142  PHE142     -0.0042
    117  CE1        3.1200   13.9820   32.7800 C.ar  142  PHE142     -0.0003
    118  CE2        0.7210   14.0250   32.4990 C.ar  142  PHE142     -0.0003
    119  CZ         1.8490   14.0840   33.3310 C.ar  142  PHE142     -0.0000
@<TRIPOS>BOND
     1    64    65    1
     2    11     9   ar
     3    11    10   ar
     4   112   111    2
     5     9     7   ar
     6   111   110    1
     7    10     8   ar
     8    65    68    1
     9    65    66    1
    10    68    69    1
    11     7     6   ar
    12   110   113    1
    13   110   109    1
    14    66    67    2
    15     8     6   ar
    16    69    70    1
    17    59    58    2
    18   113   114    1
    19     6     5    1
    20    58    57    1
    21    71    70    2
    22    70    72   am
    23    20    21    1
    24     3     4    2
    25     3     2    1
    26    60    57    1
    27    60    61    1
    28   114   116   ar
    29   114   115   ar
    30     5     2    1
    31    57    56    1
    32     2     1    1
    33   116   118   ar
    34    12    13    1
    35   115   117   ar
    36    61    63   ar
    37    61    62   ar
    38    21    24    1
    39    21    22    1
    40    24    25    1
    41    14    13    1
    42    14    15    2
    43    13    16    1
    44    73    74    1
    45   104   103    2
    46   118   119   ar
    47   103   102    1
    48    22    23    2
    49    22    28   am
    50   117   119   ar
    51    74    75    1
    52    74    77    1
    53    27    25   am
    54    25    26    2
    55    35    33   ar
    56    16    17    1
    57    16    18    1
    58    28    29    1
    59    17    19    1
    60    76    75    2
    61    77    78    1
    62    34    33   ar
    63    33    32    1
    64   102   105    1
    65   102   101    1
    66   105   106    1
    67    29    32    1
    68    29    30    1
    69    78    80   am
    70    78    79    2
    71    51    50    2
    72   106   107   ar
    73   106   108   ar
    74    50    49    1
    75    54    52    1
    76    30    36   am
    77    30    31    2
    78    36    37    1
    79    96    95    2
    80    52    49    1
    81    52    53    1
    82   100    98   am
    83    49    48    1
    84    38    37    1
    85    38    39    2
    86    81    82    1
    87    95    94    1
    88    37    40    1
    89    93    94    1
    90    93    83   am
    91    98    99    2
    92    98    97    1
    93    53    55    1
    94    40    41    1
    95    85    82    1
    96    85    86    1
    97    82    83    1
    98    94    97    1
    99    83    84    2
   100    41    42   ar
   101    41    43   ar
   102    86    88   ar
   103    86    87   ar
   104    88    90   ar
   105    42    44   ar
   106    43    45   ar
   107    87    89   ar
   108    90    91   ar
   109    44    46   ar
   110    45    46   ar
   111    89    91   ar
   112    91    92    1
   113    46    47    1
