@<TRIPOS>MOLECULE
tmp/1uwgA00.pdb
 111 109 0 0 0
SMALL
GASTEIGER

@<TRIPOS>ATOM
      1  N         20.9160  -16.4750   44.9470 N.3    31  ASN31      -0.1225
      2  CA        19.6010  -16.3940   44.3500 C.3    31  ASN31       0.1785
      3  C         19.7680  -16.0810   42.8620 C.2    31  ASN31       0.2597
      4  O         20.7110  -15.3990   42.4610 O.2    31  ASN31      -0.2718
      5  CB        18.7600  -15.3270   45.0370 C.3    31  ASN31       0.1169
      6  CG        18.2810  -15.7520   46.4120 C.2    31  ASN31       0.2627
      7  OD1       17.1100  -16.0630   46.5940 O.2    31  ASN31      -0.2716
      8  ND2       19.1820  -15.7610   47.3850 N.am   31  ASN31      -0.0877
      9  N         18.8600  -16.5910   42.0440 N.am   32  ILE32      -0.1966
     10  CA        18.9280  -16.3690   40.6200 C.3    32  ILE32       0.1727
     11  C         17.5270  -16.0660   40.1860 C.2    32  ILE32       0.2616
     12  O         16.5860  -16.7630   40.5870 O.2    32  ILE32      -0.2715
     13  CB        19.3910  -17.6430   39.8780 C.3    32  ILE32       0.0290
     14  CG1       20.7130  -18.1690   40.4460 C.3    32  ILE32       0.0022
     15  CG2       19.4640  -17.4080   38.3550 C.3    32  ILE32       0.0023
     16  CD1       21.1470  -19.5100   39.8640 C.3    32  ILE32       0.0001
     17  N         17.3900  -15.0230   39.3710 N.am   33  TYR33      -0.1974
     18  CA        16.1090  -14.6940   38.7870 C.3    33  TYR33       0.1639
     19  C         16.2830  -14.2100   37.3560 C.2    33  TYR33       0.2290
     20  O         17.3930  -13.8950   36.9260 O.2    33  TYR33      -0.2864
     21  CB        15.3450  -13.6810   39.6330 C.3    33  TYR33       0.0560
     22  CG        15.9750  -12.3170   39.7540 C.ar   33  TYR33      -0.0198
     23  CD1       15.5690  -11.2670   38.9440 C.ar   33  TYR33      -0.0009
     24  CD2       16.9720  -12.0700   40.6950 C.ar   33  TYR33      -0.0009
     25  CE1       16.1490  -10.0030   39.0640 C.ar   33  TYR33       0.0417
     26  CE2       17.5560  -10.8130   40.8210 C.ar   33  TYR33       0.0417
     27  CZ        17.1420   -9.7830   40.0080 C.ar   33  TYR33       0.1957
     28  OH        17.7210   -8.5370   40.1420 O.3    33  TYR33      -0.2866
     29  N          9.4760   -8.9490   35.9240 N.3    45  TRP45      -0.1241
     30  CA        10.0780  -10.0350   36.6840 C.3    45  TRP45       0.1605
     31  C          9.4050  -11.3540   36.3250 C.2    45  TRP45       0.2264
     32  O          8.2080  -11.5410   36.5680 O.2    45  TRP45      -0.2867
     33  CB         9.9940   -9.7800   38.1920 C.3    45  TRP45       0.0550
     34  CG        10.5580  -10.9110   39.0090 C.ar   45  TRP45       0.0003
     35  CD1       11.8800  -11.2070   39.2050 C.ar   45  TRP45       0.0946
     36  CD2        9.8190  -11.9040   39.7320 C.ar   45  TRP45       0.0152
     37  NE1       12.0070  -12.3180   40.0070 N.ar   45  TRP45      -0.2442
     38  CE2       10.7560  -12.7670   40.3430 C.ar   45  TRP45       0.0810
     39  CE3        8.4590  -12.1550   39.9240 C.ar   45  TRP45       0.0012
     40  CZ2       10.3730  -13.8510   41.1310 C.ar   45  TRP45       0.0191
     41  CZ3        8.0840  -13.2310   40.7050 C.ar   45  TRP45       0.0001
     42  CH2        9.0350  -14.0630   41.3000 C.ar   45  TRP45       0.0015
     43  N         12.1130  -16.6550   39.8950 N.3    48  GLY48      -0.1210
     44  CA        13.4230  -16.8900   40.4670 C.3    48  GLY48       0.1956
     45  C         13.4880  -18.1390   41.3320 C.2    48  GLY48       0.2612
     46  O         12.4670  -18.6850   41.7440 O.2    48  GLY48      -0.2717
     47  N         14.7110  -18.5880   41.6020 N.am   49  ILE49      -0.1965
     48  CA        14.9580  -19.7570   42.4280 C.3    49  ILE49       0.1727
     49  C         15.8970  -19.4100   43.5750 C.2    49  ILE49       0.2616
     50  O         16.9350  -18.7860   43.3620 O.2    49  ILE49      -0.2715
     51  CB        15.6330  -20.8520   41.6060 C.3    49  ILE49       0.0290
     52  CG1       14.7000  -21.3630   40.5150 C.3    49  ILE49       0.0022
     53  CG2       16.1110  -21.9770   42.5290 C.3    49  ILE49       0.0023
     54  CD1       15.4220  -21.9640   39.3430 C.3    49  ILE49       0.0001
     55  N         15.5480  -19.8270   44.7890 N.am   50  ASP50      -0.1971
     56  CA        16.4160  -19.5830   45.9390 C.3    50  ASP50       0.1709
     57  C         17.3230  -20.7990   46.2130 C.2    50  ASP50       0.2293
     58  O         16.8880  -21.9530   46.1450 O.2    50  ASP50      -0.2864
     59  CB        15.5830  -19.1690   47.1550 C.3    50  ASP50       0.1436
     60  CG        15.9070  -19.9700   48.3870 C.2    50  ASP50       0.3671
     61  OD1       16.8130  -19.5370   49.1410 O.co2  50  ASP50      -0.2456
     62  OD2       15.3050  -21.0380   48.6820 O.co2  50  ASP50      -0.2456
     63  N         10.1590  -19.6020   42.1080 N.3    57  VAL57      -0.1245
     64  CA         9.0180  -18.7070   42.3320 C.3    57  VAL57       0.1561
     65  C          8.6600  -18.0080   41.0280 C.2    57  VAL57       0.2260
     66  O          9.5030  -17.3820   40.4050 O.2    57  VAL57      -0.2867
     67  CB         9.2930  -17.6700   43.4420 C.3    57  VAL57       0.0252
     68  CG1        8.0550  -16.8140   43.6790 C.3    57  VAL57       0.0019
     69  CG2        9.7320  -18.3630   44.7480 C.3    57  VAL57       0.0019
     70  N         22.0040  -12.5420   42.9850 N.3    97  PHE97      -0.1241
     71  CA        22.0570  -11.6750   44.1460 C.3    97  PHE97       0.1605
     72  C         22.0020  -12.4880   45.4220 C.2    97  PHE97       0.2264
     73  O         21.5880  -13.6480   45.4150 O.2    97  PHE97      -0.2867
     74  CB        20.8930  -10.6910   44.1130 C.3    97  PHE97       0.0534
     75  CG        19.5770  -11.3010   44.5040 C.ar   97  PHE97      -0.0203
     76  CD1       19.0670  -11.1250   45.7820 C.ar   97  PHE97      -0.0042
     77  CD2       18.8490  -12.0540   43.6020 C.ar   97  PHE97      -0.0042
     78  CE1       17.8530  -11.6890   46.1430 C.ar   97  PHE97      -0.0003
     79  CE2       17.6330  -12.6170   43.9630 C.ar   97  PHE97      -0.0003
     80  CZ        17.1420  -12.4310   45.2310 C.ar   97  PHE97      -0.0000
     81  N         21.1340  -11.5820   49.6580 N.3    99  GLY99      -0.1210
     82  CA        20.8110  -10.5890   50.6590 C.3    99  GLY99       0.1956
     83  C         21.0480   -9.1950   50.1080 C.2    99  GLY99       0.2611
     84  O         20.6560   -8.8830   48.9890 O.2    99  GLY99      -0.2717
     85  N         21.7010   -8.3530   50.9010 N.am  100  ASN100     -0.1974
     86  CA        21.9650   -6.9700   50.5140 C.3   100  ASN100      0.1688
     87  C         23.3530   -6.7710   49.9260 C.2   100  ASN100      0.2292
     88  O         23.8910   -5.6620   49.9390 O.2   100  ASN100     -0.2864
     89  CB        21.8210   -6.0620   51.7300 C.3   100  ASN100      0.1181
     90  CG        20.3820   -5.8140   52.1060 C.2   100  ASN100      0.2629
     91  OD1       19.4710   -6.0700   51.3270 O.2   100  ASN100     -0.2716
     92  ND2       20.1690   -5.3050   53.3150 N.am  100  ASN100     -0.0877
     93  N         25.3770   -8.1120   46.5420 N.3   102  PHE102     -0.1227
     94  CA        25.4030   -7.6210   45.1950 C.3   102  PHE102      0.1736
     95  C         24.0390   -7.8750   44.6090 C.2   102  PHE102      0.2595
     96  O         23.1510   -8.4280   45.2600 O.2   102  PHE102     -0.2718
     97  CB        26.4620   -8.3730   44.4100 C.3   102  PHE102      0.0547
     98  CG        26.4420   -9.8350   44.6780 C.ar  102  PHE102     -0.0202
     99  CD1       25.6690  -10.6780   43.9050 C.ar  102  PHE102     -0.0042
    100  CD2       27.1820  -10.3690   45.7170 C.ar  102  PHE102     -0.0042
    101  CE1       25.6430  -12.0190   44.1530 C.ar  102  PHE102     -0.0003
    102  CE2       27.1550  -11.7160   45.9690 C.ar  102  PHE102     -0.0003
    103  CZ        26.3800  -12.5410   45.1840 C.ar  102  PHE102     -0.0000
    104  N         23.8910   -7.4430   43.3680 N.am  103  ASP103     -0.1974
    105  CA        22.7290   -7.7210   42.5630 C.3   103  ASP103      0.1709
    106  C         23.2110   -7.4240   41.1650 C.2   103  ASP103      0.2293
    107  O         23.2410   -6.2700   40.7380 O.2   103  ASP103     -0.2864
    108  CB        21.5580   -6.8280   42.9230 C.3   103  ASP103      0.1436
    109  CG        20.3970   -7.0140   41.9790 C.2   103  ASP103      0.3671
    110  OD1       19.8390   -6.0020   41.5230 O.co2 103  ASP103     -0.2456
    111  OD2       19.9770   -8.1370   41.6260 O.co2 103  ASP103     -0.2456
@<TRIPOS>BOND
     1    29    30    1
     2    31    32    2
     3    31    30    1
     4    30    33    1
     5    20    19    2
     6    19    18    1
     7    33    34    1
     8    15    13    1
     9    18    17    1
    10    18    21    1
    11    23    25   ar
    12    23    22   ar
    13    34    35   ar
    14    34    36   ar
    15    25    27   ar
    16    35    37   ar
    17    54    52    1
    18    17    11   am
    19    21    22    1
    20    36    39   ar
    21    36    38   ar
    22    22    24   ar
    23    16    14    1
    24    13    14    1
    25    13    10    1
    26    43    44    1
    27    39    41   ar
    28    37    38   ar
    29    27    28    1
    30    27    26   ar
    31    11    12    2
    32    11    10    1
    33    38    40   ar
    34    66    65    2
    35    44    45    1
    36    52    51    1
    37    10     9    1
    38    24    26   ar
    39    41    42   ar
    40   107   106    2
    41    65    64    1
    42    40    42   ar
    43   106   105    1
    44    45    47   am
    45    45    46    2
    46   110   109   ar
    47    47    48    1
    48    51    48    1
    49    51    53    1
    50   111   109   ar
    51   109   108    1
    52     9     3   am
    53    63    64    1
    54    64    67    1
    55    48    49    1
    56     4     3    2
    57   105   108    1
    58   105   104    1
    59     3     2    1
    60    70    71    1
    61    50    49    2
    62   104    95   am
    63    67    68    1
    64    67    69    1
    65    49    55   am
    66    77    79   ar
    67    77    75   ar
    68    99   101   ar
    69    99    98   ar
    70    79    80   ar
    71    74    71    1
    72    74    75    1
    73    71    72    1
    74   101   103   ar
    75     2     1    1
    76     2     5    1
    77    97    98    1
    78    97    94    1
    79    75    76   ar
    80    95    94    1
    81    95    96    2
    82    98   100   ar
    83    55    56    1
    84     5     6    1
    85   103   102   ar
    86    94    93    1
    87    80    78   ar
    88    73    72    2
    89   100   102   ar
    90    76    78   ar
    91    56    57    1
    92    56    59    1
    93    58    57    2
    94     6     7    2
    95     6     8   am
    96    59    60    1
    97    60    62   ar
    98    60    61   ar
    99    84    83    2
   100    81    82    1
   101    87    88    2
   102    87    86    1
   103    83    82    1
   104    83    85   am
   105    86    85    1
   106    86    89    1
   107    91    90    2
   108    89    90    1
   109    90    92   am
