@<TRIPOS>MOLECULE
tmp/1uwhA00.pdb
 209 200 0 0 0
SMALL
GASTEIGER

@<TRIPOS>ATOM
      1  N         67.9450   43.1100   54.5310 N.3    16  ILE16      -0.1245
      2  CA        67.4550   42.5150   55.7630 C.3    16  ILE16       0.1561
      3  C         66.5480   43.4570   56.5180 C.2    16  ILE16       0.2260
      4  O         65.5470   43.0340   57.0840 O.2    16  ILE16      -0.2867
      5  CB        68.6160   42.1170   56.6930 C.3    16  ILE16       0.0252
      6  CG1       69.5980   41.2280   55.9420 C.3    16  ILE16       0.0019
      7  CG2       68.0880   41.3770   57.9050 C.3    16  ILE16       0.0019
      8  CD1       68.9570   40.0090   55.3440 C.3    16  ILE16       0.0001
      9  N         70.2830   47.6520   56.2270 N.3    24  VAL24      -0.1245
     10  CA        71.1330   46.5060   56.5080 C.3    24  VAL24       0.1561
     11  C         70.8990   45.3800   55.5190 C.2    24  VAL24       0.2260
     12  O         69.7920   44.8670   55.4060 O.2    24  VAL24      -0.2867
     13  CB        70.8770   45.9620   57.9170 C.3    24  VAL24       0.0252
     14  CG1       71.8210   44.8170   58.2060 C.3    24  VAL24       0.0019
     15  CG2       71.0550   47.0560   58.9290 C.3    24  VAL24       0.0019
     16  N         77.4520   41.0000   57.2190 N.3    34  ALA34      -0.1245
     17  CA        76.3030   41.8860   57.2570 C.3    34  ALA34       0.1562
     18  C         76.8160   43.2820   56.9810 C.2    34  ALA34       0.2260
     19  O         77.8380   43.6880   57.5280 O.2    34  ALA34      -0.2867
     20  CB        75.6570   41.8360   58.5980 C.3    34  ALA34       0.0290
     21  N         75.8330   47.4510   56.8290 N.3    36  LYS36      -0.1245
     22  CA        74.8960   48.4690   57.2730 C.3    36  LYS36       0.1561
     23  C         75.3840   49.7720   56.6730 C.2    36  LYS36       0.2260
     24  O         76.4740   50.2260   56.9990 O.2    36  LYS36      -0.2867
     25  CB        74.9070   48.5440   58.7940 C.3    36  LYS36       0.0271
     26  CG        74.1510   49.7010   59.4050 C.3    36  LYS36       0.0035
     27  CD        74.1720   49.5700   60.9200 C.3    36  LYS36       0.0206
     28  CE        73.6400   50.8040   61.6200 C.3    36  LYS36       0.1093
     29  NZ        73.7220   50.6460   63.1010 N.3    36  LYS36      -0.1314
     30  N         80.2060   54.8630   65.8150 N.3    54  GLU54      -0.1245
     31  CA        79.9190   53.4290   65.7790 C.3    54  GLU54       0.1567
     32  C         81.1910   52.6500   65.4960 C.2    54  GLU54       0.2260
     33  O         81.5710   51.7620   66.2520 O.2    54  GLU54      -0.2867
     34  CB        78.8710   53.1080   64.7060 C.3    54  GLU54       0.0388
     35  CG        78.3370   51.6740   64.7740 C.3    54  GLU54       0.1160
     36  CD        77.0730   51.4560   63.9360 C.2    54  GLU54       0.3649
     37  OE1       76.5430   52.4550   63.3980 O.co2  54  GLU54      -0.2457
     38  OE2       76.6010   50.2930   63.8230 O.co2  54  GLU54      -0.2457
     39  N         83.7070   52.5530   68.1600 N.3    57  VAL57      -0.1231
     40  CA        83.3240   51.7470   69.3080 C.3    57  VAL57       0.1692
     41  C         83.4750   50.2690   69.0140 C.2    57  VAL57       0.2591
     42  O         83.9280   49.5010   69.8650 O.2    57  VAL57      -0.2718
     43  CB        81.8640   52.0150   69.7190 C.3    57  VAL57       0.0266
     44  CG1       81.4770   51.1240   70.8850 C.3    57  VAL57       0.0020
     45  CG2       81.7010   53.4610   70.1130 C.3    57  VAL57       0.0020
     46  N         83.0860   49.8700   67.8080 N.am   58  LEU58      -0.1980
     47  CA        83.1780   48.4710   67.4000 C.3    58  LEU58       0.1596
     48  C         84.6240   47.9810   67.2910 C.2    58  LEU58       0.2287
     49  O         84.9180   46.8550   67.6700 O.2    58  LEU58      -0.2864
     50  CB        82.4530   48.2630   66.0650 C.3    58  LEU58       0.0297
     51  CG        80.9210   48.2520   66.0820 C.3    58  LEU58       0.0022
     52  CD1       80.4000   48.3620   64.6640 C.3    58  LEU58       0.0001
     53  CD2       80.4240   46.9800   66.7400 C.3    58  LEU58       0.0001
     54  N         86.1900   46.5560   70.3990 N.3    61  THR61      -0.1218
     55  CA        85.6350   45.3250   70.9480 C.3    61  THR61       0.1862
     56  C         86.1340   44.0490   70.2950 C.2    61  THR61       0.2287
     57  O         86.2170   43.9450   69.0750 O.2    61  THR61      -0.2866
     58  CB        84.1080   45.3090   70.8350 C.3    61  THR61       0.1770
     59  OG1       83.7370   45.3560   69.4550 O.3    61  THR61      -0.2211
     60  CG2       83.5040   46.4860   71.5440 C.3    61  THR61       0.0375
     61  N         80.1810   39.8080   71.8130 N.3    66  ILE66      -0.1231
     62  CA        79.8980   41.0770   71.1670 C.3    66  ILE66       0.1692
     63  C         79.9900   40.8680   69.6650 C.2    66  ILE66       0.2591
     64  O         80.9610   40.2920   69.1660 O.2    66  ILE66      -0.2718
     65  CB        80.9120   42.1800   71.5870 C.3    66  ILE66       0.0266
     66  CG1       80.4570   42.8560   72.8860 C.3    66  ILE66       0.0019
     67  CG2       81.0090   43.2550   70.5030 C.3    66  ILE66       0.0020
     68  CD1       80.3080   41.9230   74.0340 C.3    66  ILE66       0.0001
     69  N         78.9730   41.3240   68.9440 N.am   67  LEU67      -0.1980
     70  CA        78.9580   41.2030   67.4910 C.3    67  LEU67       0.1596
     71  C         80.3680   41.5050   66.9640 C.2    67  LEU67       0.2287
     72  O         80.9890   42.4950   67.3590 O.2    67  LEU67      -0.2864
     73  CB        77.9480   42.1980   66.9100 C.3    67  LEU67       0.0297
     74  CG        77.6070   42.0640   65.4380 C.3    67  LEU67       0.0022
     75  CD1       76.9020   40.7540   65.2290 C.3    67  LEU67       0.0001
     76  CD2       76.7180   43.2020   64.9900 C.3    67  LEU67       0.0001
     77  N         79.2240   49.7390   57.3550 N.3    80  ILE80      -0.1245
     78  CA        79.8870   48.9820   58.4090 C.3    80  ILE80       0.1561
     79  C         79.6900   47.4840   58.1620 C.2    80  ILE80       0.2260
     80  O         78.5770   47.0370   57.9150 O.2    80  ILE80      -0.2867
     81  CB        79.3250   49.3570   59.7850 C.3    80  ILE80       0.0252
     82  CG1       79.7970   50.7590   60.1510 C.3    80  ILE80       0.0019
     83  CG2       79.7820   48.3660   60.8290 C.3    80  ILE80       0.0019
     84  CD1       79.4000   51.2030   61.5340 C.3    80  ILE80       0.0001
     85  N         79.9730   43.5890   59.5890 N.3    82  THR82      -0.1203
     86  CA        80.0910   42.7870   60.8050 C.3    82  THR82       0.1994
     87  C         79.8140   41.3500   60.4420 C.2    82  THR82       0.2618
     88  O         79.2190   41.0830   59.4020 O.2    82  THR82      -0.2717
     89  CB        79.0590   43.2000   61.8500 C.3    82  THR82       0.1784
     90  OG1       77.7500   42.8290   61.4050 O.3    82  THR82      -0.2211
     91  CG2       79.0880   44.6870   62.0580 C.3    82  THR82       0.0376
     92  N         80.2300   40.4180   61.2880 N.am   83  GLN83      -0.1965
     93  CA        79.9760   39.0160   61.0000 C.3    83  GLN83       0.1733
     94  C         78.4910   38.8640   60.7560 C.2    83  GLN83       0.2616
     95  O         77.7130   39.7310   61.1390 O.2    83  GLN83      -0.2715
     96  CB        80.3790   38.1340   62.1790 C.3    83  GLN83       0.0408
     97  CG        79.7190   38.4960   63.4820 C.3    83  GLN83       0.0908
     98  CD        79.9350   37.4450   64.5390 C.2    83  GLN83       0.2608
     99  OE1       80.1030   37.7550   65.7210 O.2    83  GLN83      -0.2717
    100  NE2       79.9150   36.1850   64.1250 N.am   83  GLN83      -0.0878
    101  N         78.0960   37.7790   60.1020 N.am   84  TRP84      -0.1960
    102  CA        76.6860   37.5320   59.8410 C.3    84  TRP84       0.1771
    103  C         76.1650   36.5570   60.8780 C.2    84  TRP84       0.2620
    104  O         76.6280   35.4280   60.9340 O.2    84  TRP84      -0.2715
    105  CB        76.4880   36.9150   58.4650 C.3    84  TRP84       0.0590
    106  CG        75.0770   36.5340   58.2330 C.ar   84  TRP84       0.0006
    107  CD1       74.5370   35.2760   58.2720 C.ar   84  TRP84       0.0946
    108  CD2       73.9960   37.4260   57.9710 C.ar   84  TRP84       0.0152
    109  NE1       73.1820   35.3370   58.0460 N.ar   84  TRP84      -0.2442
    110  CE2       72.8280   36.6480   57.8590 C.ar   84  TRP84       0.0810
    111  CE3       73.9030   38.8140   57.8190 C.ar   84  TRP84       0.0012
    112  CZ2       71.5780   37.2150   57.6040 C.ar   84  TRP84       0.0191
    113  CZ3       72.6650   39.3780   57.5680 C.ar   84  TRP84       0.0001
    114  CH2       71.5130   38.5790   57.4610 C.ar   84  TRP84       0.0015
    115  N         75.2060   36.9690   61.6960 N.am   85  CYS85      -0.1954
    116  CA        74.6750   36.0590   62.7000 C.3    85  CYS85       0.1843
    117  C         73.5060   35.2500   62.1680 C.2    85  CYS85       0.2625
    118  O         72.5460   35.7950   61.6290 O.2    85  CYS85      -0.2714
    119  CB        74.2570   36.8280   63.9490 C.3    85  CYS85       0.0997
    120  SG        75.6780   37.5280   64.8130 S.3    85  CYS85      -0.0797
    121  N         73.5930   33.9370   62.3050 N.am   86  GLU86      -0.1963
    122  CA        72.5210   33.0970   61.8310 C.3    86  GLU86       0.1733
    123  C         71.5960   32.8530   63.0110 C.2    86  GLU86       0.2616
    124  O         72.0470   32.4420   64.0750 O.2    86  GLU86      -0.2715
    125  CB        73.0780   31.7790   61.2980 C.3    86  GLU86       0.0429
    126  CG        72.1130   31.0500   60.3730 C.3    86  GLU86       0.1163
    127  CD        71.7420   31.8760   59.1370 C.2    86  GLU86       0.3649
    128  OE1       72.6130   32.0510   58.2490 O.co2  86  GLU86      -0.2457
    129  OE2       70.5850   32.3630   59.0590 O.co2  86  GLU86      -0.2457
    130  N         70.3080   33.1330   62.8340 N.am   87  GLY87      -0.1955
    131  CA        69.3600   32.9290   63.9130 C.3    87  GLY87       0.1869
    132  C         68.3560   34.0560   64.0360 C.2    87  GLY87       0.2309
    133  O         67.9680   34.6710   63.0400 O.2    87  GLY87      -0.2863
    134  N         81.9710   45.2160   77.6620 N.3   120  LEU120     -0.1245
    135  CA        81.7700   46.5650   77.1560 C.3   120  LEU120      0.1561
    136  C         82.0410   47.6190   78.2180 C.2   120  LEU120      0.2260
    137  O         82.6770   48.6300   77.9430 O.2   120  LEU120     -0.2867
    138  CB        80.3480   46.7350   76.6560 C.3   120  LEU120      0.0270
    139  CG        79.9770   46.0180   75.3720 C.3   120  LEU120      0.0019
    140  CD1       78.5390   46.3660   75.0430 C.3   120  LEU120      0.0001
    141  CD2       80.9020   46.4440   74.2390 C.3   120  LEU120      0.0001
    142  N         82.5180   51.4530   77.8450 N.3   125  ILE125     -0.1231
    143  CA        81.5260   51.6520   76.8000 C.3   125  ILE125      0.1692
    144  C         80.1470   51.4260   77.3800 C.2   125  ILE125      0.2592
    145  O         79.8940   50.4010   78.0070 O.2   125  ILE125     -0.2718
    146  CB        81.7200   50.6630   75.6460 C.3   125  ILE125      0.0266
    147  CG1       83.0760   50.8720   74.9980 C.3   125  ILE125      0.0019
    148  CG2       80.6240   50.8420   74.6240 C.3   125  ILE125      0.0020
    149  CD1       83.3410   49.8990   73.9030 C.3   125  ILE125      0.0001
    150  N         79.2640   52.3910   77.1700 N.am  126  ILE126     -0.1966
    151  CA        77.8980   52.2990   77.6530 C.3   126  ILE126      0.1727
    152  C         77.0210   52.0180   76.4350 C.2   126  ILE126      0.2616
    153  O         77.0680   52.7470   75.4400 O.2   126  ILE126     -0.2715
    154  CB        77.4890   53.6210   78.3220 C.3   126  ILE126      0.0290
    155  CG1       78.4600   53.9250   79.4630 C.3   126  ILE126      0.0022
    156  CG2       76.0680   53.5430   78.8490 C.3   126  ILE126      0.0023
    157  CD1       78.3020   55.3100   80.0450 C.3   126  ILE126      0.0001
    158  N         76.2290   50.9570   76.5060 N.am  127  HIS127     -0.1973
    159  CA        75.3910   50.6020   75.3790 C.3   127  HIS127      0.1656
    160  C         74.3320   51.6580   75.1180 C.2   127  HIS127      0.2291
    161  O         74.2240   52.1820   74.0080 O.2   127  HIS127     -0.2864
    162  CB        74.7240   49.2550   75.6300 C.3   127  HIS127      0.0771
    163  CG        74.3120   48.5420   74.3780 C.ar  127  HIS127      0.0820
    164  ND1       73.4050   49.0660   73.4790 N.ar  127  HIS127     -0.2267
    165  CD2       74.6800   47.3400   73.8750 C.ar  127  HIS127      0.1154
    166  CE1       73.2330   48.2200   72.4820 C.ar  127  HIS127      0.1986
    167  NE2       73.9970   47.1620   72.6980 N.ar  127  HIS127     -0.2212
    168  N         71.3710   38.9250   70.1380 N.3   136  PHE136     -0.1241
    169  CA        71.1610   37.9400   69.0850 C.3   136  PHE136      0.1605
    170  C         71.6020   36.5510   69.5020 C.2   136  PHE136      0.2264
    171  O         72.6960   36.3980   70.0400 O.2   136  PHE136     -0.2867
    172  CB        71.9400   38.3480   67.8430 C.3   136  PHE136      0.0534
    173  CG        71.3770   37.8020   66.5850 C.ar  136  PHE136     -0.0203
    174  CD1       70.4910   38.5600   65.8250 C.ar  136  PHE136     -0.0042
    175  CD2       71.6830   36.5080   66.1780 C.ar  136  PHE136     -0.0042
    176  CE1       69.9110   38.0310   64.6740 C.ar  136  PHE136     -0.0003
    177  CE2       71.1110   35.9650   65.0300 C.ar  136  PHE136     -0.0003
    178  CZ        70.2210   36.7260   64.2730 C.ar  136  PHE136     -0.0000
    179  N         75.8250   40.5630   71.4250 N.3   145  ILE145     -0.1231
    180  CA        75.2500   41.8660   71.7260 C.3   145  ILE145      0.1692
    181  C         75.6920   42.8770   70.6720 C.2   145  ILE145      0.2593
    182  O         76.8130   42.8090   70.1880 O.2   145  ILE145     -0.2718
    183  CB        75.7230   42.3610   73.1120 C.3   145  ILE145      0.0266
    184  CG1       75.2660   41.4080   74.1990 C.3   145  ILE145      0.0019
    185  CG2       75.1750   43.7400   73.3970 C.3   145  ILE145      0.0020
    186  CD1       75.7330   41.8270   75.5520 C.3   145  ILE145      0.0001
    187  N         74.8170   43.8110   70.3230 N.am  146  GLY146     -0.1942
    188  CA        75.1700   44.8230   69.3470 C.3   146  GLY146      0.2014
    189  C         74.0420   45.8220   69.2690 C.2   146  GLY146      0.2639
    190  O         73.1770   45.8260   70.1420 O.2   146  GLY146     -0.2714
    191  N         74.0420   46.6760   68.2500 N.am  147  ASP147     -0.1957
    192  CA        72.9580   47.6410   68.0920 C.3   147  ASP147      0.1840
    193  C         72.2780   47.4330   66.7320 C.2   147  ASP147      0.2622
    194  O         72.6550   48.0440   65.7290 O.2   147  ASP147     -0.2715
    195  CB        73.4850   49.0720   68.2180 C.3   147  ASP147      0.1450
    196  CG        72.4560   50.0270   68.8300 C.2   147  ASP147      0.3671
    197  OD1       72.8740   50.9360   69.5950 O.co2 147  ASP147     -0.2456
    198  OD2       71.2350   49.8800   68.5470 O.co2 147  ASP147     -0.2456
    199  N         71.2680   46.5640   66.7180 N.am  148  PHE148     -0.1974
    200  CA        70.5290   46.2440   65.5050 C.3   148  PHE148      0.1639
    201  C         69.4310   47.2610   65.2070 C.2   148  PHE148      0.2290
    202  O         68.5290   46.9960   64.4120 O.2   148  PHE148     -0.2864
    203  CB        69.9110   44.8500   65.6080 C.3   148  PHE148      0.0560
    204  CG        70.9130   43.7520   65.8340 C.ar  148  PHE148     -0.0200
    205  CD1       71.6470   43.6810   67.0210 C.ar  148  PHE148     -0.0042
    206  CD2       71.1150   42.7740   64.8730 C.ar  148  PHE148     -0.0042
    207  CE1       72.5670   42.6450   67.2470 C.ar  148  PHE148     -0.0003
    208  CE2       72.0280   41.7360   65.0860 C.ar  148  PHE148     -0.0003
    209  CZ        72.7530   41.6750   66.2770 C.ar  148  PHE148     -0.0000
@<TRIPOS>BOND
     1     1     2    1
     2     8     6    1
     3    12    11    2
     4    11    10    1
     5     2     3    1
     6     2     5    1
     7     6     5    1
     8     9    10    1
     9    10    13    1
    10     3     4    2
    11    23    24    2
    12    23    22    1
    13     5     7    1
    14    21    22    1
    15    18    17    1
    16    18    19    2
    17    16    17    1
    18    17    20    1
    19    22    25    1
    20    77    78    1
    21   114   113   ar
    22   114   112   ar
    23   113   111   ar
    24   112   110   ar
    25   111   108   ar
    26   110   108   ar
    27   110   109   ar
    28    80    79    2
    29    13    14    1
    30    13    15    1
    31   108   106   ar
    32   109   107   ar
    33    79    78    1
    34   106   107   ar
    35   106   105    1
    36   128   127   ar
    37    78    81    1
    38   105   102    1
    39    25    26    1
    40   129   127   ar
    41   127   126    1
    42    88    87    2
    43    26    27    1
    44    85    86    1
    45    81    82    1
    46    81    83    1
    47   102   101    1
    48   102   103    1
    49   101    94   am
    50    82    84    1
    51   126   125    1
    52    87    86    1
    53    87    92   am
    54    94    93    1
    55    94    95    2
    56    86    89    1
    57   103   104    2
    58   103   115   am
    59    27    28    1
    60    93    92    1
    61    93    96    1
    62   125   122    1
    63    90    89    1
    64    28    29    1
    65   118   117    2
    66   115   116    1
    67   122   121    1
    68   122   123    1
    69    89    91    1
    70   117   121   am
    71   117   116    1
    72    96    97    1
    73   116   119    1
    74   130   123   am
    75   130   131    1
    76   123   124    2
    77   133   132    2
    78    37    36   ar
    79    97    98    1
    80    38    36   ar
    81   131   132    1
    82    36    35    1
    83   119   120    1
    84   100    98   am
    85   178   176   ar
    86   178   177   ar
    87   202   201    2
    88    98    99    2
    89    52    51    1
    90   176   174   ar
    91    34    35    1
    92    34    31    1
    93   206   208   ar
    94   206   204   ar
    95    76    74    1
    96   177   175   ar
    97   208   209   ar
    98   201   200    1
    99    75    74    1
   100    74    73    1
   101    32    31    1
   102    32    33    2
   103   200   203    1
   104   200   199    1
   105   203   204    1
   106   194   193    2
   107    31    30    1
   108   174   173   ar
   109   204   205   ar
   110    50    51    1
   111    50    47    1
   112    51    53    1
   113   175   173   ar
   114   209   207   ar
   115   173   172    1
   116   199   193   am
   117   193   192    1
   118    73    70    1
   119    71    72    2
   120    71    70    1
   121   205   207   ar
   122    48    47    1
   123    48    49    2
   124    47    46    1
   125    70    69    1
   126    46    41   am
   127   172   169    1
   128   192   195    1
   129   192   191    1
   130    39    40    1
   131   195   196    1
   132   191   189   am
   133   198   196   ar
   134   196   197   ar
   135    69    63   am
   136    41    40    1
   137    41    42    2
   138    57    56    2
   139   169   170    1
   140   169   168    1
   141    64    63    2
   142   189   188    1
   143   189   190    2
   144    40    43    1
   145   188   187    1
   146    59    58    1
   147   170   171    2
   148    63    62    1
   149    43    45    1
   150    43    44    1
   151   182   181    2
   152    56    55    1
   153   187   181   am
   154    54    55    1
   155    67    65    1
   156   181   180    1
   157    58    55    1
   158    58    60    1
   159    62    65    1
   160    62    61    1
   161   179   180    1
   162    65    66    1
   163   180   183    1
   164   166   167   ar
   165   166   164   ar
   166   167   165   ar
   167    66    68    1
   168   183   185    1
   169   183   184    1
   170   164   163   ar
   171   165   163   ar
   172   149   147    1
   173   161   160    2
   174   184   186    1
   175   141   139    1
   176   163   162    1
   177   148   146    1
   178   147   146    1
   179   140   139    1
   180   160   159    1
   181   139   138    1
   182   159   162    1
   183   159   158    1
   184   153   152    2
   185   146   143    1
   186   152   158   am
   187   152   151    1
   188   138   135    1
   189   143   144    1
   190   143   142    1
   191   135   134    1
   192   135   136    1
   193   150   144   am
   194   150   151    1
   195   144   145    2
   196   151   154    1
   197   137   136    2
   198   154   156    1
   199   154   155    1
   200   155   157    1
