@<TRIPOS>MOLECULE
tmp/1uwkA01.pdb
 108 100 0 0 0
SMALL
GASTEIGER

@<TRIPOS>ATOM
      1  N         26.9970   21.9340  -53.9630 N.3    49  TYR49      -0.1241
      2  CA        28.4460   21.7400  -53.7520 C.3    49  TYR49       0.1605
      3  C         28.6880   20.5190  -52.8900 C.2    49  TYR49       0.2264
      4  O         27.7300   19.8800  -52.4080 O.2    49  TYR49      -0.2867
      5  CB        29.0700   22.9790  -53.0750 C.3    49  TYR49       0.0534
      6  CG        28.7830   23.1360  -51.5910 C.ar   49  TYR49      -0.0201
      7  CD1       29.7060   22.7050  -50.6430 C.ar   49  TYR49      -0.0009
      8  CD2       27.5840   23.7170  -51.1570 C.ar   49  TYR49      -0.0009
      9  CE1       29.4590   22.8370  -49.2960 C.ar   49  TYR49       0.0417
     10  CE2       27.3210   23.8730  -49.7910 C.ar   49  TYR49       0.0417
     11  CZ        28.2660   23.4220  -48.8770 C.ar   49  TYR49       0.1957
     12  OH        28.0240   23.5780  -47.5210 O.3    49  TYR49      -0.2866
     13  N         24.6070   19.3200  -46.8170 N.3   128  GLN128     -0.1231
     14  CA        25.9280   19.9510  -46.6190 C.3   128  GLN128      0.1698
     15  C         25.7890   20.9730  -45.5010 C.2   128  GLN128      0.2592
     16  O         25.1090   20.6700  -44.5100 O.2   128  GLN128     -0.2718
     17  CB        26.4890   20.4850  -47.9340 C.3   128  GLN128      0.0381
     18  CG        27.5230   19.5200  -48.5380 C.3   128  GLN128      0.0905
     19  CD        28.7990   19.4650  -47.7150 C.2   128  GLN128      0.2608
     20  OE1       28.8670   20.0360  -46.6250 O.2   128  GLN128     -0.2717
     21  NE2       29.7820   18.7230  -48.2480 N.am  128  GLN128     -0.0878
     22  N         26.3630   22.1580  -45.6330 N.am  129  MET129     -0.1965
     23  CA        26.1260   23.2090  -44.6630 C.3   129  MET129      0.1736
     24  C         25.1300   24.1700  -45.3060 C.2   129  MET129      0.2617
     25  O         23.9590   24.2490  -44.8710 O.2   129  MET129     -0.2715
     26  CB        27.4320   23.8720  -44.2150 C.3   129  MET129      0.0427
     27  CG        28.3120   22.8030  -43.4780 C.3   129  MET129      0.0599
     28  SD        29.6580   23.6120  -42.6350 S.3   129  MET129     -0.1393
     29  CE        30.0940   22.4330  -41.3550 C.3   129  MET129      0.0692
     30  N         25.5240   24.8730  -46.3660 N.am  130  THR130     -0.1951
     31  CA        24.6960   25.9500  -46.8970 C.3   130  THR130      0.1897
     32  C         23.9080   25.5080  -48.1470 C.2   130  THR130      0.2313
     33  O         23.1380   26.3180  -48.7150 O.2   130  THR130     -0.2863
     34  CB        25.5870   27.1820  -47.2050 C.3   130  THR130      0.1794
     35  OG1       26.5470   26.7270  -48.1620 O.3   130  THR130     -0.2208
     36  CG2       26.2750   27.6780  -45.9340 C.3   130  THR130      0.0378
     37  N         24.2290   29.6550  -49.8880 N.3   136  TYR136     -0.1241
     38  CA        25.4950   29.4650  -50.6160 C.3   136  TYR136      0.1605
     39  C         25.6540   30.5810  -51.6380 C.2   136  TYR136      0.2264
     40  O         24.7150   30.9470  -52.3540 O.2   136  TYR136     -0.2867
     41  CB        25.4100   28.1260  -51.3410 C.3   136  TYR136      0.0534
     42  CG        26.6560   27.6620  -52.0540 C.ar  136  TYR136     -0.0201
     43  CD1       27.7530   27.1760  -51.3580 C.ar  136  TYR136     -0.0009
     44  CD2       26.7420   27.6980  -53.4560 C.ar  136  TYR136     -0.0009
     45  CE1       28.8670   26.7470  -52.0040 C.ar  136  TYR136      0.0417
     46  CE2       27.8590   27.2640  -54.1390 C.ar  136  TYR136      0.0417
     47  CZ        28.9360   26.7850  -53.4080 C.ar  136  TYR136      0.1957
     48  OH        30.0810   26.3560  -54.0370 O.3   136  TYR136     -0.2866
     49  N         31.9310   32.0710  -50.5980 N.3   141  GLY141     -0.1210
     50  CA        31.5700   31.7980  -49.1910 C.3   141  GLY141      0.1956
     51  C         32.7160   31.3380  -48.3710 C.2   141  GLY141      0.2611
     52  O         32.7960   31.6670  -47.1660 O.2   141  GLY141     -0.2717
     53  N         33.6220   30.5620  -48.9690 N.am  142  ILE142     -0.1979
     54  CA        34.7440   29.9790  -48.2130 C.3   142  ILE142      0.1595
     55  C         36.0450   30.7250  -48.4710 C.2   142  ILE142      0.2287
     56  O         37.0160   30.5060  -47.7670 O.2   142  ILE142     -0.2864
     57  CB        34.9270   28.4660  -48.5340 C.3   142  ILE142      0.0276
     58  CG1       35.6540   27.7520  -47.3810 C.3   142  ILE142      0.0022
     59  CG2       35.6050   28.2540  -49.8730 C.3   142  ILE142      0.0022
     60  CD1       35.8450   26.2770  -47.7000 C.3   142  ILE142      0.0001
     61  N         33.6610   24.6130  -53.2680 N.3   175  MET175     -0.1245
     62  CA        34.4750   25.1620  -52.1850 C.3   175  MET175      0.1570
     63  C         35.9650   25.0290  -52.4660 C.2   175  MET175      0.2261
     64  O         36.7640   25.9580  -52.1860 O.2   175  MET175     -0.2867
     65  CB        34.0800   24.4890  -50.8690 C.3   175  MET175      0.0387
     66  CG        32.5920   24.6980  -50.5820 C.3   175  MET175      0.0595
     67  SD        32.1430   26.2990  -49.8640 S.3   175  MET175     -0.1393
     68  CE        32.2170   27.4620  -51.2030 C.3   175  MET175      0.0692
     69  N         28.3640   36.8670  -43.9090 N.3   359  ARG359     -0.1245
     70  CA        28.1420   37.1740  -45.3010 C.3   359  ARG359      0.1563
     71  C         26.7640   37.8550  -45.4970 C.2   359  ARG359      0.2260
     72  O         25.8960   37.7380  -44.6550 O.2   359  ARG359     -0.2867
     73  CB        28.2230   35.9420  -46.2290 C.3   359  ARG359      0.0307
     74  CG        27.0950   34.9580  -45.8870 C.3   359  ARG359      0.0489
     75  CD        27.2500   33.6040  -46.5930 C.3   359  ARG359      0.2205
     76  NE        28.5030   32.9110  -46.2170 N.pl3 359  ARG359     -0.0865
     77  CZ        28.8290   31.6890  -46.6480 C.cat 359  ARG359      0.5346
     78  NH1       28.0050   30.9750  -47.4300 N.pl3 359  ARG359      0.1354
     79  NH2       29.9760   31.1530  -46.2890 N.pl3 359  ARG359      0.1354
     80  N         28.2350   30.7580  -43.2310 N.3   440  ASP440     -0.1239
     81  CA        28.3460   29.2960  -43.3050 C.3   440  ASP440      0.1674
     82  C         27.8830   28.7090  -41.9770 C.2   440  ASP440      0.2266
     83  O         27.7260   29.4260  -40.9720 O.2   440  ASP440     -0.2867
     84  CB        29.8070   28.9690  -43.6270 C.3   440  ASP440      0.1410
     85  CG        30.0120   27.5340  -44.0390 C.2   440  ASP440      0.3668
     86  OD1       29.0630   26.7310  -44.1990 O.co2 440  ASP440     -0.2456
     87  OD2       31.2100   27.1580  -44.2580 O.co2 440  ASP440     -0.2456
     88  N         30.0070   26.6250  -40.6210 N.3   442  LEU442     -0.1245
     89  CA        31.3280   26.7310  -40.0250 C.3   442  LEU442      0.1561
     90  C         31.3560   28.1210  -39.4090 C.2   442  LEU442      0.2260
     91  O         31.3810   29.1210  -40.1210 O.2   442  LEU442     -0.2867
     92  CB        32.4520   26.5990  -41.0610 C.3   442  LEU442      0.0270
     93  CG        33.8880   26.9710  -40.6570 C.3   442  LEU442      0.0019
     94  CD1       34.9050   26.1740  -41.4690 C.3   442  LEU442      0.0001
     95  CD2       34.3010   28.4450  -40.8420 C.3   442  LEU442      0.0001
     96  N         36.1220   21.6500  -37.1210 N.3   453  GLU453     -0.1245
     97  CA        36.0820   22.8830  -36.3220 C.3   453  GLU453      0.1567
     98  C         36.2680   22.6860  -34.8180 C.2   453  GLU453      0.2260
     99  O         36.7170   23.6380  -34.1610 O.2   453  GLU453     -0.2867
    100  CB        34.7250   23.6150  -36.5140 C.3   453  GLU453      0.0388
    101  CG        34.5770   24.1130  -37.9680 C.3   453  GLU453      0.1160
    102  CD        33.8140   23.1480  -38.8630 C.2   453  GLU453      0.3649
    103  OE1       33.9140   21.9180  -38.6930 O.co2 453  GLU453     -0.2457
    104  OE2       33.0950   23.6440  -39.7580 O.co2 453  GLU453     -0.2457
    105  N         30.4470   19.0620  -44.4200 N.3   490  GLY490     -0.1225
    106  CA        31.8990   19.1970  -44.3560 C.3   490  GLY490      0.1811
    107  C         32.5870   17.8200  -44.3720 C.2   490  GLY490      0.2280
    108  O         33.2550   17.4080  -45.3410 O.2   490  GLY490     -0.2866
@<TRIPOS>BOND
     1    46    44   ar
     2    46    47   ar
     3    48    47    1
     4     1     2    1
     5     2     5    1
     6     2     3    1
     7    44    42   ar
     8    47    45   ar
     9    61    62    1
    10     5     6    1
    11     3     4    2
    12    63    64    2
    13    63    62    1
    14    40    39    2
    15    62    65    1
    16    42    43   ar
    17    42    41    1
    18    45    43   ar
    19    39    38    1
    20     6     8   ar
    21     6     7   ar
    22    41    38    1
    23    68    67    1
    24     8    10   ar
    25    65    66    1
    26     7     9   ar
    27    38    37    1
    28    49    50    1
    29    66    67    1
    30    59    57    1
    31    10    11   ar
    32     9    11   ar
    33    50    51    1
    34    53    51   am
    35    53    54    1
    36    11    12    1
    37    33    32    2
    38    18    17    1
    39    18    19    1
    40    57    54    1
    41    57    58    1
    42    55    54    1
    43    55    56    2
    44    51    52    2
    45    21    19   am
    46    35    34    1
    47    32    31    1
    48    17    14    1
    49    19    20    2
    50    60    58    1
    51    78    77    1
    52    34    31    1
    53    34    36    1
    54    31    30    1
    55    13    14    1
    56    77    79    1
    57    77    76    2
    58    14    15    1
    59    75    76    1
    60    75    74    1
    61    30    24   am
    62    73    74    1
    63    73    70    1
    64    22    15   am
    65    22    23    1
    66    15    16    2
    67    71    70    1
    68    71    72    2
    69   108   107    2
    70    24    25    2
    71    24    23    1
    72    70    69    1
    73    23    26    1
    74   105   106    1
    75   107   106    1
    76    87    85   ar
    77    26    27    1
    78    86    85   ar
    79    85    84    1
    80    84    81    1
    81    27    28    1
    82    81    80    1
    83    81    82    1
    84    28    29    1
    85    82    83    2
    86    94    93    1
    87    92    93    1
    88    92    89    1
    89    95    93    1
    90    88    89    1
    91    91    90    2
    92    89    90    1
    93   104   102   ar
    94   102   103   ar
    95   102   101    1
    96   101   100    1
    97    96    97    1
    98   100    97    1
    99    97    98    1
   100    98    99    2
