@<TRIPOS>MOLECULE
tmp/1uwsB00.pdb
 144 146 0 0 0
SMALL
GASTEIGER

@<TRIPOS>ATOM
      1  N         48.2910   34.0790   56.7030 N.3    18  GLN18      -0.1245
      2  CA        47.3890   35.2340   56.7180 C.3    18  GLN18       0.1566
      3  C         46.0950   34.9430   57.4380 C.2    18  GLN18       0.2260
      4  O         45.4990   35.8480   58.0330 O.2    18  GLN18      -0.2867
      5  CB        47.1100   35.6720   55.2740 C.3    18  GLN18       0.0367
      6  CG        48.3780   36.0960   54.5260 C.3    18  GLN18       0.0905
      7  CD        48.0490   36.6640   53.1360 C.2    18  GLN18       0.2608
      8  OE1       48.1290   35.9340   52.1220 O.2    18  GLN18      -0.2717
      9  NE2       47.6610   37.9550   53.0890 N.am   18  GLN18      -0.0878
     10  N         53.5370   29.5870   50.5780 N.3   148  HIS148     -0.1226
     11  CA        52.9600   30.9360   50.3980 C.3   148  HIS148      0.1752
     12  C         53.6880   31.9050   51.3300 C.2   148  HIS148      0.2596
     13  O         53.0630   32.6550   52.0850 O.2   148  HIS148     -0.2718
     14  CB        51.4340   30.8880   50.6340 C.3   148  HIS148      0.0759
     15  CG        50.6700   32.0860   50.1200 C.ar  148  HIS148      0.0818
     16  ND1       49.4500   31.9580   49.4860 N.ar  148  HIS148     -0.2268
     17  CD2       50.9160   33.4200   50.1910 C.ar  148  HIS148      0.1154
     18  CE1       48.9640   33.1600   49.2120 C.ar  148  HIS148      0.1986
     19  NE2       49.8340   34.0640   49.6190 N.ar  148  HIS148     -0.2212
     20  N         55.0270   31.8130   51.2760 N.am  149  TRP149     -0.1976
     21  CA        56.0340   32.8360   51.6570 C.3   149  TRP149      0.1640
     22  C         56.8560   32.5910   52.9320 C.2   149  TRP149      0.2290
     23  O         58.0870   32.6000   52.8400 O.2   149  TRP149     -0.2864
     24  CB        55.5120   34.3040   51.6170 C.3   149  TRP149      0.0576
     25  CG        54.8990   34.7070   50.2770 C.ar  149  TRP149      0.0006
     26  CD1       54.9120   34.0100   49.1060 C.ar  149  TRP149      0.0946
     27  CD2       54.2140   35.9230   50.0130 C.ar  149  TRP149      0.0152
     28  NE1       54.2880   34.7340   48.1090 N.ar  149  TRP149     -0.2442
     29  CE2       53.8310   35.9100   48.6490 C.ar  149  TRP149      0.0810
     30  CE3       53.8830   37.0410   50.7940 C.ar  149  TRP149      0.0012
     31  CZ2       53.1030   36.9700   48.0560 C.ar  149  TRP149      0.0191
     32  CZ3       53.1570   38.1030   50.1930 C.ar  149  TRP149      0.0001
     33  CH2       52.7820   38.0460   48.8480 C.ar  149  TRP149      0.0015
     34  N         53.2640   30.0110   45.6800 N.3   203  ASN203     -0.1225
     35  CA        52.4780   31.2140   45.4150 C.3   203  ASN203      0.1785
     36  C         53.4130   32.3900   45.1880 C.2   203  ASN203      0.2597
     37  O         54.2100   32.7300   46.0620 O.2   203  ASN203     -0.2718
     38  CB        51.5580   31.5030   46.5950 C.3   203  ASN203      0.1169
     39  CG        50.8070   32.8480   46.4440 C.2   203  ASN203      0.2627
     40  OD1       49.7150   32.8840   45.8680 O.2   203  ASN203     -0.2716
     41  ND2       51.3770   33.9280   46.9950 N.am  203  ASN203     -0.0877
     42  N         53.3530   32.9950   44.0000 N.am  204  GLU204     -0.1979
     43  CA        54.0660   34.2480   43.7030 C.3   204  GLU204      0.1602
     44  C         55.5300   34.2990   44.1460 C.2   204  GLU204      0.2287
     45  O         55.8990   35.1520   44.9690 O.2   204  GLU204     -0.2864
     46  CB        53.3240   35.4640   44.3130 C.3   204  GLU204      0.0415
     47  CG        51.8240   35.5000   44.0330 C.3   204  GLU204      0.1163
     48  CD        51.1690   36.8410   44.4050 C.2   204  GLU204      0.3649
     49  OE1       51.6560   37.5200   45.3600 O.co2 204  GLU204     -0.2457
     50  OE2       50.1660   37.2280   43.7260 O.co2 204  GLU204     -0.2457
     51  N         45.6870   41.7950   39.7910 N.3   318  TYR318     -0.1241
     52  CA        44.9270   42.9460   40.3310 C.3   318  TYR318      0.1605
     53  C         44.7050   44.1120   39.3780 C.2   318  TYR318      0.2264
     54  O         43.6170   44.7130   39.3780 O.2   318  TYR318     -0.2867
     55  CB        45.5990   43.4700   41.5930 C.3   318  TYR318      0.0534
     56  CG        45.4890   42.4620   42.6840 C.ar  318  TYR318     -0.0201
     57  CD1       44.2580   42.1850   43.2630 C.ar  318  TYR318     -0.0009
     58  CD2       46.6100   41.7340   43.1070 C.ar  318  TYR318     -0.0009
     59  CE1       44.1410   41.2380   44.2650 C.ar  318  TYR318      0.0417
     60  CE2       46.4910   40.7590   44.1280 C.ar  318  TYR318      0.0417
     61  CZ        45.2730   40.5380   44.6970 C.ar  318  TYR318      0.1957
     62  OH        45.1080   39.6030   45.6960 O.3   318  TYR318     -0.2866
     63  N         44.0890   50.1660   48.8210 N.3   355  PHE355     -0.1241
     64  CA        45.5220   49.8740   48.6540 C.3   355  PHE355      0.1605
     65  C         46.1590   50.7630   47.5940 C.2   355  PHE355      0.2264
     66  O         47.3880   50.7530   47.3940 O.2   355  PHE355     -0.2867
     67  CB        45.7070   48.3870   48.2590 C.3   355  PHE355      0.0534
     68  CG        46.7870   47.6500   49.0460 C.ar  355  PHE355     -0.0203
     69  CD1       47.9270   48.3130   49.5180 C.ar  355  PHE355     -0.0042
     70  CD2       46.6710   46.2780   49.2810 C.ar  355  PHE355     -0.0042
     71  CE1       48.9470   47.5950   50.2240 C.ar  355  PHE355     -0.0003
     72  CE2       47.6740   45.5520   49.9810 C.ar  355  PHE355     -0.0003
     73  CZ        48.8070   46.2250   50.4560 C.ar  355  PHE355     -0.0000
     74  N         45.2780   50.7410   44.2870 N.3   357  TRP357     -0.1241
     75  CA        45.4010   49.9810   43.0530 C.3   357  TRP357      0.1605
     76  C         44.2600   50.3390   42.1080 C.2   357  TRP357      0.2264
     77  O         43.0930   50.3330   42.4910 O.2   357  TRP357     -0.2867
     78  CB        45.4140   48.4650   43.3280 C.3   357  TRP357      0.0550
     79  CG        46.5410   48.0000   44.2740 C.ar  357  TRP357      0.0003
     80  CD1       47.5820   48.7500   44.7770 C.ar  357  TRP357      0.0946
     81  CD2       46.6920   46.6850   44.8350 C.ar  357  TRP357      0.0152
     82  NE1       48.3730   47.9810   45.6080 N.ar  357  TRP357     -0.2442
     83  CE2       47.8510   46.7090   45.6660 C.ar  357  TRP357      0.0810
     84  CE3       45.9580   45.4920   44.7320 C.ar  357  TRP357      0.0012
     85  CZ2       48.2990   45.5700   46.3800 C.ar  357  TRP357      0.0191
     86  CZ3       46.4020   44.3570   45.4420 C.ar  357  TRP357      0.0001
     87  CH2       47.5660   44.4140   46.2540 C.ar  357  TRP357      0.0015
     88  N         44.0130   34.1870   42.0070 N.3   383  GLU383     -0.1245
     89  CA        43.9350   35.3190   42.9270 C.3   383  GLU383      0.1567
     90  C         43.4390   36.5410   42.1750 C.2   383  GLU383      0.2260
     91  O         44.0280   36.9200   41.1470 O.2   383  GLU383     -0.2867
     92  CB        45.3180   35.6070   43.4960 C.3   383  GLU383      0.0388
     93  CG        45.3240   36.4660   44.7360 C.3   383  GLU383      0.1160
     94  CD        46.6460   37.1180   44.9650 C.2   383  GLU383      0.3649
     95  OE1       47.2380   37.6100   44.0160 O.co2 383  GLU383     -0.2457
     96  OE2       47.1130   37.1510   46.2220 O.co2 383  GLU383     -0.2457
     97  N         40.2850   36.4250   45.8200 N.3   421  TRP421     -0.1241
     98  CA        41.0250   36.7300   47.0350 C.3   421  TRP421      0.1605
     99  C         40.2660   37.8030   47.8010 C.2   421  TRP421      0.2264
    100  O         40.2690   38.9540   47.3720 O.2   421  TRP421     -0.2867
    101  CB        42.4390   37.2180   46.7210 C.3   421  TRP421      0.0550
    102  CG        43.2200   37.3670   47.9970 C.ar  421  TRP421      0.0003
    103  CD1       43.2610   38.4660   48.8330 C.ar  421  TRP421      0.0946
    104  CD2       44.0150   36.3540   48.6330 C.ar  421  TRP421      0.0152
    105  NE1       44.0440   38.1900   49.9370 N.ar  421  TRP421     -0.2442
    106  CE2       44.5210   36.9050   49.8360 C.ar  421  TRP421      0.0810
    107  CE3       44.3620   35.0400   48.3020 C.ar  421  TRP421      0.0012
    108  CZ2       45.3610   36.1790   50.7040 C.ar  421  TRP421      0.0191
    109  CZ3       45.2080   34.3120   49.1730 C.ar  421  TRP421      0.0001
    110  CH2       45.6950   34.8920   50.3470 C.ar  421  TRP421      0.0015
    111  N         47.3130   41.1910   56.0210 N.3   428  GLU428     -0.1231
    112  CA        47.9450   41.6110   54.7630 C.3   428  GLU428      0.1699
    113  C         49.4190   41.9510   55.0000 C.2   428  GLU428      0.2592
    114  O         49.8430   43.0760   54.8500 O.2   428  GLU428     -0.2718
    115  CB        47.1900   42.8000   54.0930 C.3   428  GLU428      0.0402
    116  CG        47.7660   43.2100   52.7350 C.3   428  GLU428      0.1161
    117  CD        47.7110   42.0740   51.7000 C.2   428  GLU428      0.3649
    118  OE1       46.8240   41.1980   51.7780 O.co2 428  GLU428     -0.2457
    119  OE2       48.5810   42.0670   50.8050 O.co2 428  GLU428     -0.2457
    120  N         50.1980   40.9450   55.4020 N.am  429  TRP429     -0.1976
    121  CA        51.6460   41.0630   55.4340 C.3   429  TRP429      0.1640
    122  C         52.1330   42.2850   56.2070 C.2   429  TRP429      0.2290
    123  O         51.6780   42.5330   57.3280 O.2   429  TRP429     -0.2864
    124  CB        52.2170   40.9830   53.9980 C.3   429  TRP429      0.0576
    125  CG        51.7080   39.7460   53.3280 C.ar  429  TRP429      0.0006
    126  CD1       50.7660   39.6660   52.3100 C.ar  429  TRP429      0.0946
    127  CD2       52.0680   38.3890   53.6450 C.ar  429  TRP429      0.0152
    128  NE1       50.5440   38.3450   51.9810 N.ar  429  TRP429     -0.2442
    129  CE2       51.3260   37.5430   52.7840 C.ar  429  TRP429      0.0810
    130  CE3       52.9520   37.7990   54.5780 C.ar  429  TRP429      0.0012
    131  CZ2       51.4470   36.1440   52.8130 C.ar  429  TRP429      0.0191
    132  CZ3       53.0760   36.4060   54.6010 C.ar  429  TRP429      0.0001
    133  CH2       52.3140   35.5890   53.7320 C.ar  429  TRP429      0.0015
    134  N         40.3650   42.3200   52.1420 N.3   437  PHE437     -0.1241
    135  CA        40.0710   41.7400   50.8310 C.3   437  PHE437      0.1605
    136  C         38.8980   40.7650   50.8510 C.2   437  PHE437      0.2264
    137  O         38.5710   40.1700   49.8300 O.2   437  PHE437     -0.2867
    138  CB        41.2910   40.9860   50.2810 C.3   437  PHE437      0.0534
    139  CG        42.3500   41.8680   49.7000 C.ar  437  PHE437     -0.0203
    140  CD1       43.3020   42.4860   50.5280 C.ar  437  PHE437     -0.0042
    141  CD2       42.4380   42.0470   48.3120 C.ar  437  PHE437     -0.0042
    142  CE1       44.3060   43.2890   50.0010 C.ar  437  PHE437     -0.0003
    143  CE2       43.4380   42.8420   47.7590 C.ar  437  PHE437     -0.0003
    144  CZ        44.3780   43.4760   48.5950 C.ar  437  PHE437     -0.0000
@<TRIPOS>BOND
     1    54    53    2
     2    53    52    1
     3    51    52    1
     4    52    55    1
     5    91    90    2
     6    55    56    1
     7    88    89    1
     8    76    77    2
     9    76    75    1
    10    90    89    1
    11    56    58   ar
    12    56    57   ar
    13    89    92    1
    14    75    78    1
    15    75    74    1
    16    58    60   ar
    17    57    59   ar
    18    78    79    1
    19    92    93    1
    20    43    42    1
    21    43    44    1
    22    43    46    1
    23    50    48   ar
    24    42    36   am
    25    95    94   ar
    26    47    46    1
    27    47    48    1
    28    60    61   ar
    29    44    45    2
    30    59    61   ar
    31    79    80   ar
    32    79    81   ar
    33    48    49   ar
    34    61    62    1
    35    84    81   ar
    36    84    86   ar
    37    93    94    1
    38    80    82   ar
    39    81    83   ar
    40    94    96   ar
    41    36    35    1
    42    36    37    2
    43    35    34    1
    44    35    38    1
    45    86    87   ar
    46    82    83   ar
    47    83    85   ar
    48    97    98    1
    49    40    39    2
    50    87    85   ar
    51    39    38    1
    52    39    41   am
    53   101    98    1
    54   101   102    1
    55    98    99    1
    56   100    99    2
    57    66    65    2
    58    65    64    1
    59   143   141   ar
    60   143   144   ar
    61   102   104   ar
    62   102   103   ar
    63    31    29   ar
    64    31    33   ar
    65    28    29   ar
    66    28    26   ar
    67    67    64    1
    68    67    68    1
    69   107   104   ar
    70   107   109   ar
    71   141   139   ar
    72   144   142   ar
    73   104   106   ar
    74    29    27   ar
    75    64    63    1
    76   103   105   ar
    77    33    32   ar
    78    68    70   ar
    79    68    69   ar
    80    26    25   ar
    81   109   110   ar
    82    18    16   ar
    83    18    19   ar
    84    70    72   ar
    85    16    15   ar
    86    69    71   ar
    87    19    17   ar
    88   139   138    1
    89   139   140   ar
    90   137   136    2
    91   106   105   ar
    92   106   108   ar
    93    72    73   ar
    94   142   140   ar
    95    27    25   ar
    96    27    30   ar
    97    15    17   ar
    98    15    14    1
    99    32    30   ar
   100    71    73   ar
   101    25    24    1
   102   138   135    1
   103   110   108   ar
   104    11    10    1
   105    11    14    1
   106    11    12    1
   107   119   117   ar
   108   135   136    1
   109   135   134    1
   110    20    12   am
   111    20    21    1
   112    12    13    2
   113    24    21    1
   114    21    22    1
   115   117   118   ar
   116   117   116    1
   117   128   126   ar
   118   128   129   ar
   119     8     7    2
   120   126   125   ar
   121   116   115    1
   122   129   131   ar
   123   129   127   ar
   124   131   133   ar
   125    23    22    2
   126     9     7   am
   127     7     6    1
   128   125   127   ar
   129   125   124    1
   130   127   130   ar
   131   133   132   ar
   132   124   121    1
   133   115   112    1
   134     6     5    1
   135   130   132   ar
   136   112   113    1
   137   112   111    1
   138   114   113    2
   139   113   120   am
   140     5     2    1
   141   120   121    1
   142   121   122    1
   143   122   123    2
   144     1     2    1
   145     2     3    1
   146     3     4    2
