@<TRIPOS>MOLECULE
tmp/1uwtB00.pdb
 145 145 0 0 0
SMALL
GASTEIGER

@<TRIPOS>ATOM
      1  N        142.3340   97.7300   65.0300 N.3    18  GLN18      -0.1245
      2  CA       141.4900   96.6620   64.4760 C.3    18  GLN18       0.1566
      3  C        140.5120   97.1590   63.4110 C.2    18  GLN18       0.2260
      4  O        140.1810   96.4230   62.4830 O.2    18  GLN18      -0.2867
      5  CB       140.7300   96.0060   65.6080 C.3    18  GLN18       0.0367
      6  CG       141.6930   95.2290   66.5080 C.3    18  GLN18       0.0905
      7  CD       140.9690   94.3880   67.4890 C.2    18  GLN18       0.2608
      8  OE1      140.6980   94.8460   68.6190 O.2    18  GLN18      -0.2717
      9  NE2      140.6760   93.1420   67.1040 N.am   18  GLN18      -0.0878
     10  N        145.1010  100.8890   73.2530 N.3   148  HIS148     -0.1226
     11  CA       144.5360   99.5600   72.9600 C.3   148  HIS148      0.1752
     12  C        145.5650   98.7490   72.1540 C.2   148  HIS148      0.2596
     13  O        145.2610   98.1740   71.0820 O.2   148  HIS148     -0.2718
     14  CB       143.1570   99.7160   72.2930 C.3   148  HIS148      0.0759
     15  CG       142.3020   98.4770   72.3100 C.ar  148  HIS148      0.0818
     16  ND1      140.9490   98.5190   72.5850 N.ar  148  HIS148     -0.2268
     17  CD2      142.5950   97.1760   72.0580 C.ar  148  HIS148      0.1154
     18  CE1      140.4410   97.3010   72.4790 C.ar  148  HIS148      0.1986
     19  NE2      141.4200   96.4680   72.1680 N.ar  148  HIS148     -0.2212
     20  N        146.8010   98.7790   72.6740 N.am  149  TRP149     -0.1976
     21  CA       147.8910   97.8370   72.3960 C.3   149  TRP149      0.1640
     22  C        149.0270   98.3150   71.4850 C.2   149  TRP149      0.2290
     23  O        150.1760   98.1800   71.8820 O.2   149  TRP149     -0.2864
     24  CB       147.4040   96.4230   71.9880 C.3   149  TRP149      0.0576
     25  CG       146.4310   95.7750   72.9860 C.ar  149  TRP149      0.0006
     26  CD1      146.0670   96.2380   74.2510 C.ar  149  TRP149      0.0946
     27  CD2      145.7650   94.5330   72.8140 C.ar  149  TRP149      0.0152
     28  NE1      145.1910   95.3530   74.8420 N.ar  149  TRP149     -0.2442
     29  CE2      144.9970   94.2900   73.9950 C.ar  149  TRP149      0.0810
     30  CE3      145.7270   93.5930   71.7780 C.ar  149  TRP149      0.0012
     31  CZ2      144.1800   93.1660   74.1460 C.ar  149  TRP149      0.0191
     32  CZ3      144.9270   92.4570   71.9260 C.ar  149  TRP149      0.0001
     33  CH2      144.1420   92.2570   73.1000 C.ar  149  TRP149      0.0015
     34  N        143.3020   99.5790   77.5780 N.3   203  ASN203     -0.1225
     35  CA       142.5510   98.3480   77.4020 C.3   203  ASN203      0.1785
     36  C        143.3830   97.1250   77.7440 C.2   203  ASN203      0.2597
     37  O        144.3960   96.8850   77.1170 O.2   203  ASN203     -0.2718
     38  CB       142.0480   98.2430   75.9670 C.3   203  ASN203      0.1169
     39  CG       141.2860   96.9390   75.6990 C.2   203  ASN203      0.2627
     40  OD1      140.0880   96.8620   75.9570 O.2   203  ASN203     -0.2716
     41  ND2      141.9720   95.9350   75.1450 N.am  203  ASN203     -0.0877
     42  N        142.9490   96.3500   78.7340 N.am  204  GLU204     -0.1979
     43  CA       143.5530   95.0260   79.0330 C.3   204  GLU204      0.1602
     44  C        145.0850   94.9940   79.1040 C.2   204  GLU204      0.2287
     45  O        145.7400   94.2710   78.3410 O.2   204  GLU204     -0.2864
     46  CB       143.0710   93.9350   78.0430 C.3   204  GLU204      0.0415
     47  CG       141.5710   93.9500   77.7670 C.3   204  GLU204      0.1163
     48  CD       141.0530   92.7030   77.0390 C.2   204  GLU204      0.3649
     49  OE1      141.8450   91.9810   76.4280 O.co2 204  GLU204     -0.2457
     50  OE2      139.8120   92.4540   77.0540 O.co2 204  GLU204     -0.2457
     51  N        146.7580   91.5450   79.3080 N.3   207  VAL207     -0.1245
     52  CA       146.9810   90.7800   78.0910 C.3   207  VAL207      0.1561
     53  C        148.2680   91.2250   77.3850 C.2   207  VAL207      0.2260
     54  O        149.0330   90.3860   76.8630 O.2   207  VAL207     -0.2867
     55  CB       145.7370   90.8440   77.1670 C.3   207  VAL207      0.0252
     56  CG1      146.0410   90.2630   75.7900 C.3   207  VAL207      0.0019
     57  CG2      144.5680   90.1140   77.8330 C.3   207  VAL207      0.0019
     58  N        140.9430   92.6020   81.1580 N.3   261  ALA261     -0.1245
     59  CA       140.5030   91.2990   80.6460 C.3   261  ALA261      0.1562
     60  C        140.1500   90.3890   81.7860 C.2   261  ALA261      0.2260
     61  O        141.0130   90.0200   82.5800 O.2   261  ALA261     -0.2867
     62  CB       141.5820   90.6490   79.8090 C.3   261  ALA261      0.0290
     63  N        134.3830   87.3460   78.2460 N.3   317  TYR317     -0.1241
     64  CA       133.9670   86.4070   77.1650 C.3   317  TYR317      0.1605
     65  C        133.5340   85.0110   77.6360 C.2   317  TYR317      0.2264
     66  O        132.5860   84.4320   77.0830 O.2   317  TYR317     -0.2867
     67  CB       135.0890   86.2840   76.1100 C.3   317  TYR317      0.0534
     68  CG       135.2750   87.5940   75.3800 C.ar  317  TYR317     -0.0201
     69  CD1      134.5390   87.8790   74.2200 C.ar  317  TYR317     -0.0009
     70  CD2      136.1390   88.5830   75.8820 C.ar  317  TYR317     -0.0009
     71  CE1      134.6610   89.1060   73.5910 C.ar  317  TYR317      0.0417
     72  CE2      136.2730   89.8540   75.2310 C.ar  317  TYR317      0.0417
     73  CZ       135.5420   90.0770   74.0770 C.ar  317  TYR317      0.1957
     74  OH       135.6570   91.2640   73.4060 O.3   317  TYR317     -0.2866
     75  N        135.8770   79.3260   72.1960 N.3   356  TRP356     -0.1241
     76  CA       135.5670   79.8040   73.5660 C.3   356  TRP356      0.1605
     77  C        134.1930   79.2920   74.0010 C.2   356  TRP356      0.2264
     78  O        133.2090   79.3950   73.2420 O.2   356  TRP356     -0.2867
     79  CB       135.6170   81.3490   73.6510 C.3   356  TRP356      0.0550
     80  CG       136.9680   81.9640   73.2420 C.ar  356  TRP356      0.0003
     81  CD1      138.1410   81.3080   73.0440 C.ar  356  TRP356      0.0946
     82  CD2      137.2440   83.3480   73.0130 C.ar  356  TRP356      0.0152
     83  NE1      139.1320   82.1920   72.6920 N.ar  356  TRP356     -0.2442
     84  CE2      138.6120   83.4550   72.6660 C.ar  356  TRP356      0.0810
     85  CE3      136.4650   84.5100   73.0270 C.ar  356  TRP356      0.0012
     86  CZ2      139.2350   84.6880   72.3630 C.ar  356  TRP356      0.0191
     87  CZ3      137.0760   85.7310   72.7370 C.ar  356  TRP356      0.0001
     88  CH2      138.4590   85.8030   72.3980 C.ar  356  TRP356      0.0015
     89  N        133.3660   95.0530   77.1140 N.3   382  GLU382     -0.1245
     90  CA       133.4050   94.0960   75.9760 C.3   382  GLU382      0.1567
     91  C        132.7050   92.8280   76.3640 C.2   382  GLU382      0.2260
     92  O        132.8420   92.3620   77.4770 O.2   382  GLU382     -0.2867
     93  CB       134.8360   93.6840   75.5610 C.3   382  GLU382      0.0388
     94  CG       135.6710   94.7920   74.9670 C.3   382  GLU382      0.1160
     95  CD       137.0250   94.3410   74.4150 C.2   382  GLU382      0.3649
     96  OE1      137.2100   93.1380   74.1630 O.co2 382  GLU382     -0.2457
     97  OE2      137.9050   95.2170   74.2240 O.co2 382  GLU382     -0.2457
     98  N        131.2040   93.6960   72.0060 N.3   420  TRP420     -0.1241
     99  CA       132.3180   93.6240   71.0570 C.3   420  TRP420      0.1605
    100  C        131.9090   92.7380   69.8610 C.2   420  TRP420      0.2264
    101  O        131.8310   91.5190   70.0100 O.2   420  TRP420     -0.2867
    102  CB       133.5800   93.0710   71.7360 C.3   420  TRP420      0.0550
    103  CG       134.7060   93.0770   70.7680 C.ar  420  TRP420      0.0003
    104  CD1      134.9700   92.1330   69.8130 C.ar  420  TRP420      0.0946
    105  CD2      135.6790   94.1110   70.5910 C.ar  420  TRP420      0.0152
    106  NE1      136.0630   92.5040   69.0660 N.ar  420  TRP420     -0.2442
    107  CE2      136.5080   93.7250   69.5110 C.ar  420  TRP420      0.0810
    108  CE3      135.9280   95.3440   71.2290 C.ar  420  TRP420      0.0012
    109  CZ2      137.5780   94.5180   69.0520 C.ar  420  TRP420      0.0191
    110  CZ3      137.0260   96.1330   70.7930 C.ar  420  TRP420      0.0001
    111  CH2      137.8250   95.7080   69.6980 C.ar  420  TRP420      0.0015
    112  N        141.3360   90.7440   63.8430 N.3   427  GLU427     -0.1231
    113  CA       141.5460   90.1150   65.1710 C.3   427  GLU427      0.1699
    114  C        143.0230   89.7470   65.4220 C.2   427  GLU427      0.2592
    115  O        143.3970   88.5880   65.5270 O.2   427  GLU427     -0.2718
    116  CB       140.6280   88.9110   65.3690 C.3   427  GLU427      0.0402
    117  CG       140.6370   88.3260   66.7940 C.3   427  GLU427      0.1161
    118  CD       140.2510   89.3020   67.9120 C.2   427  GLU427      0.3649
    119  OE1      139.5660   90.3470   67.7070 O.co2 427  GLU427     -0.2457
    120  OE2      140.6140   88.9860   69.0820 O.co2 427  GLU427     -0.2457
    121  N        143.8580   90.7770   65.5140 N.am  428  TRP428     -0.1976
    122  CA       145.2560   90.6220   65.9420 C.3   428  TRP428      0.1640
    123  C        146.0080   89.5410   65.1730 C.2   428  TRP428      0.2290
    124  O        145.9620   89.5160   63.9280 O.2   428  TRP428     -0.2864
    125  CB       145.3200   90.4320   67.4870 C.3   428  TRP428      0.0576
    126  CG       144.5820   91.5240   68.1540 C.ar  428  TRP428      0.0006
    127  CD1      143.3530   91.4300   68.7860 C.ar  428  TRP428      0.0946
    128  CD2      144.9590   92.9160   68.2250 C.ar  428  TRP428      0.0152
    129  NE1      142.9670   92.6640   69.2410 N.ar  428  TRP428     -0.2442
    130  CE2      143.9320   93.5920   68.9240 C.ar  428  TRP428      0.0810
    131  CE3      146.0840   93.6590   67.7900 C.ar  428  TRP428      0.0012
    132  CZ2      143.9720   94.9680   69.1810 C.ar  428  TRP428      0.0191
    133  CZ3      146.1280   95.0360   68.0610 C.ar  428  TRP428      0.0001
    134  CH2      145.0740   95.6780   68.7400 C.ar  428  TRP428      0.0015
    135  N        133.5500   89.1590   64.9220 N.3   436  PHE436     -0.1241
    136  CA       132.8010   89.4540   66.1520 C.3   436  PHE436      0.1605
    137  C        131.6610   90.4630   65.9530 C.2   436  PHE436      0.2264
    138  O        130.9900   90.8250   66.9010 O.2   436  PHE436     -0.2867
    139  CB       133.7520   90.0350   67.2060 C.3   436  PHE436      0.0534
    140  CG       134.5440   89.0190   67.9680 C.ar  436  PHE436     -0.0203
    141  CD1      135.7590   88.5550   67.4800 C.ar  436  PHE436     -0.0042
    142  CD2      134.1270   88.6170   69.2590 C.ar  436  PHE436     -0.0042
    143  CE1      136.5410   87.6470   68.2050 C.ar  436  PHE436     -0.0003
    144  CE2      134.9020   87.6850   70.0030 C.ar  436  PHE436     -0.0003
    145  CZ       136.1070   87.2200   69.5090 C.ar  436  PHE436     -0.0000
@<TRIPOS>BOND
     1     4     3    2
     2     3     2    1
     3   112   113    1
     4   124   123    2
     5     2     1    1
     6     2     5    1
     7   135   136    1
     8   113   116    1
     9   113   114    1
    10   123   122    1
    11   116   117    1
    12   114   121   am
    13   114   115    2
    14   121   122    1
    15     5     6    1
    16   122   125    1
    17   137   136    1
    18   137   138    2
    19   136   139    1
    20     6     7    1
    21   117   118    1
    22     9     7   am
    23   139   140    1
    24   141   140   ar
    25   141   143   ar
    26   125   126    1
    27     7     8    2
    28   119   118   ar
    29   131   133   ar
    30   131   128   ar
    31   118   120   ar
    32   140   142   ar
    33   133   134   ar
    34   126   128   ar
    35   126   127   ar
    36   143   145   ar
    37   128   130   ar
    38   134   132   ar
    39   127   129   ar
    40   130   132   ar
    41   130   129   ar
    42   109   107   ar
    43   109   111   ar
    44   106   107   ar
    45   106   104   ar
    46   142   144   ar
    47   145   144   ar
    48   107   105   ar
    49   111   110   ar
    50   104   103   ar
    51   100   101    2
    52   100    99    1
    53   105   103   ar
    54   105   108   ar
    55   103   102    1
    56   110   108   ar
    57    99   102    1
    58    99    98    1
    59    13    12    2
    60    22    23    2
    61    22    21    1
    62    30    32   ar
    63    30    27   ar
    64    32    33   ar
    65    24    21    1
    66    24    25    1
    67    17    19   ar
    68    17    15   ar
    69    12    20   am
    70    12    11    1
    71    19    18   ar
    72    75    76    1
    73    14    15    1
    74    14    11    1
    75    15    16   ar
    76    86    88   ar
    77    86    84   ar
    78    21    20    1
    79    88    87   ar
    80    18    16   ar
    81    84    83   ar
    82    84    82   ar
    83    83    81   ar
    84    87    85   ar
    85    27    25   ar
    86    27    29   ar
    87    11    10    1
    88    25    26   ar
    89    82    85   ar
    90    82    80   ar
    91    81    80   ar
    92    33    31   ar
    93    80    79    1
    94    78    77    2
    95    74    73    1
    96    76    79    1
    97    76    77    1
    98    71    73   ar
    99    71    69   ar
   100    29    31   ar
   101    29    28   ar
   102    73    72   ar
   103    96    95   ar
   104    69    68   ar
   105    97    95   ar
   106    26    28   ar
   107    95    94    1
   108    94    93    1
   109    41    39   am
   110    72    70   ar
   111    68    70   ar
   112    68    67    1
   113    93    90    1
   114    39    40    2
   115    39    38    1
   116    56    55    1
   117    38    35    1
   118    90    91    1
   119    90    89    1
   120    67    64    1
   121    91    92    2
   122    49    48   ar
   123    54    53    2
   124    48    50   ar
   125    48    47    1
   126    66    65    2
   127    37    36    2
   128    64    65    1
   129    64    63    1
   130    55    57    1
   131    55    52    1
   132    53    52    1
   133    35    34    1
   134    35    36    1
   135    36    42   am
   136    47    46    1
   137    46    43    1
   138    52    51    1
   139    45    44    2
   140    42    43    1
   141    43    44    1
   142    62    59    1
   143    59    58    1
   144    59    60    1
   145    60    61    2
