@<TRIPOS>MOLECULE
tmp/1ux1D00.pdb
 118 112 0 0 0
SMALL
GASTEIGER

@<TRIPOS>ATOM
      1  N         23.3220    6.8700  108.4560 N.3    22  SER22      -0.1217
      2  CA        21.9750    6.3370  108.6200 C.3    22  SER22       0.1889
      3  C         21.9530    5.2120  109.6500 C.2    22  SER22       0.2288
      4  O         20.9240    4.9640  110.2840 O.2    22  SER22      -0.2866
      5  CB        21.4410    5.7910  107.2920 C.3    22  SER22       0.2089
      6  OG        21.9970    4.5170  107.0060 O.3    22  SER22      -0.2183
      7  N         21.9910    2.3180  108.9460 N.3    24  PHE24      -0.1241
      8  CA        21.1840    1.2760  108.3180 C.3    24  PHE24       0.1605
      9  C         22.0800    0.5460  107.3250 C.2    24  PHE24       0.2264
     10  O         22.4190    1.0930  106.2800 O.2    24  PHE24      -0.2867
     11  CB        19.9990    1.9100  107.5800 C.3    24  PHE24       0.0534
     12  CG        19.0450    0.9130  106.9860 C.ar   24  PHE24      -0.0203
     13  CD1       18.1480    0.2190  107.7950 C.ar   24  PHE24      -0.0042
     14  CD2       19.0330    0.6750  105.6160 C.ar   24  PHE24      -0.0042
     15  CE1       17.2460   -0.6990  107.2460 C.ar   24  PHE24      -0.0003
     16  CE2       18.1380   -0.2390  105.0560 C.ar   24  PHE24      -0.0003
     17  CZ        17.2430   -0.9270  105.8730 C.ar   24  PHE24      -0.0000
     18  N         23.0360   -2.4010  104.5760 N.3    26  VAL26      -0.1245
     19  CA        22.4090   -3.2290  103.5570 C.3    26  VAL26       0.1561
     20  C         23.4770   -4.0300  102.8360 C.2    26  VAL26       0.2260
     21  O         24.5750   -3.5270  102.5890 O.2    26  VAL26      -0.2867
     22  CB        21.6630   -2.3760  102.5020 C.3    26  VAL26       0.0252
     23  CG1       20.9010   -3.2850  101.5540 C.3    26  VAL26       0.0019
     24  CG2       20.7290   -1.3910  103.1810 C.3    26  VAL26       0.0019
     25  N         26.1570   -0.8910  101.1230 N.3    42  ASN42      -0.1240
     26  CA        25.9540    0.5370  100.9320 C.3    42  ASN42       0.1653
     27  C         27.1230    1.2970  101.5370 C.2    42  ASN42       0.2266
     28  O         27.6650    0.9110  102.5760 O.2    42  ASN42      -0.2867
     29  CB        24.6000    1.0090  101.5020 C.3    42  ASN42       0.1155
     30  CG        24.4140    0.6820  102.9710 C.2    42  ASN42       0.2627
     31  OD1       24.7180   -0.4200  103.4210 O.2    42  ASN42      -0.2716
     32  ND2       23.8770    1.6420  103.7250 N.am   42  ASN42      -0.0877
     33  N         28.0440    5.2070  102.4290 N.3    44  GLU44      -0.1245
     34  CA        27.5750    6.5710  102.5690 C.3    44  GLU44       0.1567
     35  C         28.6460    7.6420  102.5040 C.2    44  GLU44       0.2260
     36  O         29.8370    7.3530  102.4710 O.2    44  GLU44      -0.2867
     37  CB        26.7800    6.6940  103.8630 C.3    44  GLU44       0.0388
     38  CG        25.5550    5.7790  103.8680 C.3    44  GLU44       0.1160
     39  CD        24.7660    5.8380  105.1640 C.2    44  GLU44       0.3649
     40  OE1       23.6600    5.2580  105.2080 O.co2  44  GLU44      -0.2457
     41  OE2       25.2490    6.4550  106.1330 O.co2  44  GLU44      -0.2457
     42  N         26.0440    8.9230   98.3630 N.3    51  CYS51      -0.1221
     43  CA        25.7870    7.5500   98.7980 C.3    51  CYS51       0.1808
     44  C         25.5000    6.5390   97.6840 C.2    51  CYS51       0.2601
     45  O         24.7330    6.8110   96.7550 O.2    51  CYS51      -0.2717
     46  CB        24.6300    7.5350   99.8050 C.3    51  CYS51       0.0970
     47  SG        24.9480    8.4550  101.3450 S.3    51  CYS51      -0.0800
     48  N         26.1250    5.3680   97.8000 N.am   52  ASN52      -0.1960
     49  CA        25.9550    4.2790   96.8440 C.3    52  ASN52       0.1819
     50  C         25.2840    3.1130   97.5730 C.2    52  ASN52       0.2621
     51  O         25.6170    2.8180   98.7220 O.2    52  ASN52      -0.2715
     52  CB        27.3120    3.8370   96.3000 C.3    52  ASN52       0.1195
     53  CG        27.2200    3.2970   94.8930 C.2    52  ASN52       0.2630
     54  OD1       26.8370    4.0190   93.9670 O.2    52  ASN52      -0.2716
     55  ND2       27.5660    2.0210   94.7180 N.am   52  ASN52      -0.0877
     56  N         24.3520    2.4450   96.9030 N.am   53  HIS53      -0.1959
     57  CA        23.6140    1.3440   97.5140 C.3    53  HIS53       0.1787
     58  C         24.1680   -0.0560   97.2590 C.2    53  HIS53       0.2620
     59  O         24.8250   -0.3110   96.2520 O.2    53  HIS53      -0.2715
     60  CB        22.1410    1.4080   97.0830 C.3    53  HIS53       0.0785
     61  CG        21.4620    2.6910   97.4550 C.ar   53  HIS53       0.0821
     62  ND1       20.0910    2.8280   97.4900 N.ar   53  HIS53      -0.2267
     63  CD2       21.9660    3.9020   97.7940 C.ar   53  HIS53       0.1154
     64  CE1       19.7800    4.0650   97.8340 C.ar   53  HIS53       0.1986
     65  NE2       20.9000    4.7380   98.0250 N.ar   53  HIS53      -0.2212
     66  N         23.8760   -0.9640   98.1860 N.am   54  ALA54      -0.1963
     67  CA        24.3370   -2.3440   98.1080 C.3    54  ALA54       0.1728
     68  C         24.0560   -3.0320   96.7750 C.2    54  ALA54       0.2616
     69  O         24.9400   -3.6640   96.2040 O.2    54  ALA54      -0.2715
     70  CB        23.7310   -3.1560   99.2480 C.3    54  ALA54       0.0334
     71  N         22.8280   -2.9180   96.2830 N.am   55  GLU55      -0.1977
     72  CA        22.4630   -3.5530   95.0190 C.3    55  GLU55       0.1602
     73  C         23.3140   -3.0390   93.8670 C.2    55  GLU55       0.2287
     74  O         23.7500   -3.8080   93.0110 O.2    55  GLU55      -0.2864
     75  CB        20.9840   -3.3060   94.6890 C.3    55  GLU55       0.0415
     76  CG        19.9950   -3.8000   95.7370 C.3    55  GLU55       0.1163
     77  CD        19.5870   -2.7220   96.7160 C.2    55  GLU55       0.3649
     78  OE1       20.4580   -2.2150   97.4540 O.co2  55  GLU55      -0.2457
     79  OE2       18.3860   -2.3820   96.7450 O.co2  55  GLU55      -0.2457
     80  N         19.3110   -9.5650   98.3880 N.3    75  VAL75      -0.1245
     81  CA        19.4660   -8.3120   99.1200 C.3    75  VAL75       0.1561
     82  C         18.9690   -8.5170  100.5430 C.2    75  VAL75       0.2260
     83  O         17.9370   -9.1490  100.7540 O.2    75  VAL75      -0.2867
     84  CB        18.6380   -7.1780   98.4560 C.3    75  VAL75       0.0252
     85  CG1       19.0550   -5.8250   99.0090 C.3    75  VAL75       0.0019
     86  CG2       18.8120   -7.2290   96.9470 C.3    75  VAL75       0.0019
     87  N         13.6920   -6.8660  102.7670 N.3    83  VAL83      -0.1231
     88  CA        14.0480   -5.4900  102.4340 C.3    83  VAL83       0.1692
     89  C         13.5580   -5.1410  101.0310 C.2    83  VAL83       0.2593
     90  O         13.5550   -5.9800  100.1240 O.2    83  VAL83      -0.2718
     91  CB        15.5890   -5.2480  102.5420 C.3    83  VAL83       0.0266
     92  CG1       16.3320   -6.0200  101.4640 C.3    83  VAL83       0.0020
     93  CG2       15.8880   -3.7550  102.4520 C.3    83  VAL83       0.0020
     94  N         13.1190   -3.9020  100.8640 N.am   84  SER84      -0.1939
     95  CA        12.6160   -3.4470   99.5780 C.3    84  SER84       0.2040
     96  C         13.6460   -2.5690   98.8630 C.2    84  SER84       0.2485
     97  O         14.0760   -1.5420   99.3850 O.2    84  SER84      -0.2729
     98  CB        11.3110   -2.6620   99.7740 C.3    84  SER84       0.2129
     99  OG        10.7910   -2.2350   98.5290 O.3    84  SER84      -0.2179
    100  N         14.0810   -2.9870   97.6670 N.am   85  PRO85      -0.2715
    101  CA        15.0600   -2.2040   96.9020 C.3    85  PRO85       0.1536
    102  C         14.4290   -0.8520   96.5890 C.2    85  PRO85       0.2598
    103  O         13.2420   -0.7890   96.2640 O.2    85  PRO85      -0.2715
    104  CB        15.2560   -3.0310   95.6330 C.3    85  PRO85       0.0310
    105  CG        14.9590   -4.4270   96.0830 C.3    85  PRO85       0.0237
    106  CD        13.7690   -4.2540   96.9860 C.3    85  PRO85       0.0939
    107  N         15.2030    0.2220   96.6830 N.am   86  CYS86      -0.1968
    108  CA        14.6450    1.5310   96.3830 C.3    86  CYS86       0.1712
    109  C         14.4550    1.6370   94.8670 C.2    86  CYS86       0.2296
    110  O         14.9460    0.7990   94.1110 O.2    86  CYS86      -0.2864
    111  CB        15.5580    2.6450   96.9010 C.3    86  CYS86       0.0983
    112  SG        17.0290    2.9590   95.9170 S.3    86  CYS86      -0.0798
    113  N         17.6360    1.7410   92.6190 N.3    89  CYS89      -0.1235
    114  CA        18.2650    0.4350   92.4720 C.3    89  CYS89       0.1677
    115  C         17.4820   -0.4540   91.5110 C.2    89  CYS89       0.2270
    116  O         18.0630   -1.2240   90.7470 O.2    89  CYS89      -0.2867
    117  CB        18.3900   -0.2610   93.8290 C.3    89  CYS89       0.0956
    118  SG        19.8260    0.2570   94.7970 S.3    89  CYS89      -0.0801
@<TRIPOS>BOND
     1   116   115    2
     2   115   114    1
     3   114   113    1
     4   114   117    1
     5    74    73    2
     6   117   118    1
     7    73    72    1
     8    54    53    2
     9   110   109    2
    10    75    72    1
    11    75    76    1
    12    55    53   am
    13   109   108    1
    14    53    52    1
    15    72    71    1
    16   104   105    1
    17   104   101    1
    18    76    77    1
    19   112   111    1
    20   105   106    1
    21    69    68    2
    22    59    58    2
    23   103   102    2
    24    71    68   am
    25    52    49    1
    26   108   107    1
    27   108   111    1
    28   102   107   am
    29   102   101    1
    30    77    79   ar
    31    77    78   ar
    32    45    44    2
    33    68    67    1
    34    49    50    1
    35    49    48    1
    36   101   100    1
    37    56    57    1
    38    56    50   am
    39    86    84    1
    40   106   100    1
    41    60    61    1
    42    60    57    1
    43    58    57    1
    44    58    66   am
    45    61    62   ar
    46    61    63   ar
    47    62    64   ar
    48    50    51    2
    49   100    96   am
    50    44    48   am
    51    44    43    1
    52    63    65   ar
    53    64    65   ar
    54    67    66    1
    55    67    70    1
    56    42    43    1
    57    80    81    1
    58    84    85    1
    59    84    81    1
    60    99    98    1
    61    43    46    1
    62    96    97    2
    63    96    95    1
    64    81    82    1
    65    95    98    1
    66    95    94    1
    67    46    47    1
    68    90    89    2
    69    82    83    2
    70    94    89   am
    71    26    25    1
    72    26    29    1
    73    26    27    1
    74    89    88    1
    75    92    91    1
    76    29    30    1
    77    27    28    2
    78    23    22    1
    79    33    34    1
    80    88    91    1
    81    88    87    1
    82    93    91    1
    83    36    35    2
    84    22    24    1
    85    22    19    1
    86    35    34    1
    87    34    37    1
    88    21    20    2
    89    20    19    1
    90    30    31    2
    91    30    32   am
    92    19    18    1
    93    37    38    1
    94    38    39    1
    95    16    14   ar
    96    16    17   ar
    97    39    40   ar
    98    39    41   ar
    99    14    12   ar
   100    17    15   ar
   101    10     9    2
   102    12    11    1
   103    12    13   ar
   104     6     5    1
   105    15    13   ar
   106     5     2    1
   107     9     8    1
   108    11     8    1
   109     8     7    1
   110     1     2    1
   111     2     3    1
   112     3     4    2
