@<TRIPOS>MOLECULE
tmp/1ux8A00.pdb
 239 232 0 0 0
SMALL
GASTEIGER

@<TRIPOS>ATOM
      1  N         -1.2570    6.6060   18.2680 N.3    20  TYR20      -0.1241
      2  CA        -1.5800    5.9350   19.5270 C.3    20  TYR20       0.1605
      3  C         -1.7700    4.4100   19.4290 C.2    20  TYR20       0.2264
      4  O         -1.7310    3.7170   20.4540 O.2    20  TYR20      -0.2867
      5  CB        -2.7810    6.6050   20.2110 C.3    20  TYR20       0.0534
      6  CG        -2.3810    7.9250   20.8020 C.ar   20  TYR20      -0.0201
      7  CD1       -2.7930    9.1270   20.2240 C.ar   20  TYR20      -0.0009
      8  CD2       -1.4930    7.9800   21.8990 C.ar   20  TYR20      -0.0009
      9  CE1       -2.3850   10.3520   20.7770 C.ar   20  TYR20       0.0417
     10  CE2       -1.1010    9.1610   22.4390 C.ar   20  TYR20       0.0417
     11  CZ        -1.5310   10.3510   21.8700 C.ar   20  TYR20       0.1957
     12  OH        -1.1250   11.5520   22.4210 O.3    20  TYR20      -0.2866
     13  N          6.6840    3.1170   26.1550 N.3    29  LEU29      -0.1245
     14  CA         5.6270    4.1250   26.3520 C.3    29  LEU29       0.1561
     15  C          4.3070    3.6040   26.9070 C.2    29  LEU29       0.2260
     16  O          3.6860    4.2400   27.7520 O.2    29  LEU29      -0.2867
     17  CB         5.3640    4.8580   25.0360 C.3    29  LEU29       0.0270
     18  CG         6.5790    5.5260   24.3710 C.3    29  LEU29       0.0019
     19  CD1        6.1620    6.0590   23.0060 C.3    29  LEU29       0.0001
     20  CD2        7.1680    6.6620   25.2460 C.3    29  LEU29       0.0001
     21  N          3.4280    4.1390   30.7440 N.3    32  ILE32      -0.1231
     22  CA         3.1990    5.4650   31.3280 C.3    32  ILE32       0.1692
     23  C          1.9690    6.1990   30.7900 C.2    32  ILE32       0.2592
     24  O          1.5050    7.2170   31.4000 O.2    32  ILE32      -0.2718
     25  CB         4.4350    6.3140   31.2480 C.3    32  ILE32       0.0266
     26  CG1        4.8110    6.6660   29.8220 C.3    32  ILE32       0.0019
     27  CG2        5.5990    5.5640   31.9250 C.3    32  ILE32       0.0020
     28  CD1        5.8760    7.7400   29.8140 C.3    32  ILE32       0.0001
     29  N          1.4140    5.6740   29.6990 N.am   33  PHE33      -0.1963
     30  CA         0.1340    6.1640   29.2090 C.3    33  PHE33       0.1756
     31  C         -1.0060    5.4510   29.8970 C.2    33  PHE33       0.2461
     32  O         -0.8210    4.4190   30.5020 O.2    33  PHE33      -0.2730
     33  CB         0.0520    5.9420   27.7070 C.3    33  PHE33       0.0574
     34  CG         0.7350    7.0170   26.9220 C.ar   33  PHE33      -0.0200
     35  CD1        0.0650    8.1970   26.6280 C.ar   33  PHE33      -0.0042
     36  CD2        2.0540    6.8780   26.5300 C.ar   33  PHE33      -0.0042
     37  CE1        0.6840    9.1790   25.9330 C.ar   33  PHE33      -0.0003
     38  CE2        2.6750    7.8770   25.8260 C.ar   33  PHE33      -0.0003
     39  CZ         1.9760    9.0320   25.5270 C.ar   33  PHE33      -0.0000
     40  N         -2.2090    6.0010   29.8370 N.am   34  PRO34      -0.2727
     41  CA        -3.4120    5.2220   30.1260 C.3    34  PRO34       0.1402
     42  C         -3.5160    3.9120   29.3180 C.2    34  PRO34       0.2269
     43  O         -3.0490    3.8160   28.1760 O.2    34  PRO34      -0.2865
     44  CB        -4.5520    6.1870   29.7410 C.3    34  PRO34       0.0296
     45  CG        -3.9580    7.6270   29.9360 C.3    34  PRO34       0.0237
     46  CD        -2.4930    7.4470   29.6120 C.3    34  PRO34       0.0939
     47  N         -9.3300    8.8370   25.2480 N.3    39  GLU39      -0.1231
     48  CA        -9.3870   10.2620   25.6180 C.3    39  GLU39       0.1699
     49  C         -8.1200   11.0100   25.2430 C.2    39  GLU39       0.2592
     50  O         -8.2040   12.1450   24.7600 O.2    39  GLU39      -0.2718
     51  CB        -9.7220   10.4760   27.1160 C.3    39  GLU39       0.0402
     52  CG       -11.1600   10.1330   27.5430 C.3    39  GLU39       0.1161
     53  CD       -12.2680   10.7030   26.6330 C.2    39  GLU39       0.3649
     54  OE1      -13.1710    9.9320   26.1880 O.co2  39  GLU39      -0.2457
     55  OE2      -12.2530   11.9280   26.3590 O.co2  39  GLU39      -0.2457
     56  N         -6.9460   10.4040   25.4700 N.am   40  THR40      -0.1953
     57  CA        -5.6680   11.0280   25.0630 C.3    40  THR40       0.1897
     58  C         -5.6720   11.4190   23.5710 C.2    40  THR40       0.2313
     59  O         -5.3940   12.5600   23.2060 O.2    40  THR40      -0.2863
     60  CB        -4.4940   10.1000   25.3240 C.3    40  THR40       0.1794
     61  OG1       -4.4820    9.6560   26.6970 O.3    40  THR40      -0.2208
     62  CG2       -3.1550   10.8490   25.1550 C.3    40  THR40       0.0378
     63  N         -7.8480   14.4790   22.8800 N.3    43  LYS43      -0.1231
     64  CA        -7.1650   15.6700   23.3400 C.3    43  LYS43       0.1693
     65  C         -5.9280   16.0790   22.5170 C.2    43  LYS43       0.2591
     66  O         -5.6350   17.2480   22.4070 O.2    43  LYS43      -0.2718
     67  CB        -6.8270   15.4950   24.8370 C.3    43  LYS43       0.0285
     68  CG        -8.0880   15.3320   25.6620 C.3    43  LYS43       0.0035
     69  CD        -7.9620   15.3830   27.1940 C.3    43  LYS43       0.0206
     70  CE        -6.6440   14.9060   27.7660 C.3    43  LYS43       0.1093
     71  NZ        -6.6180   14.9540   29.3090 N.3    43  LYS43      -0.1314
     72  N         -5.2250   15.1130   21.9230 N.am   44  GLN44      -0.1979
     73  CA        -4.1040   15.4040   21.0410 C.3    44  GLN44       0.1601
     74  C         -4.6240   15.9740   19.7220 C.2    44  GLN44       0.2287
     75  O         -3.9300   16.7470   19.0960 O.2    44  GLN44      -0.2864
     76  CB        -3.2800   14.1380   20.7830 C.3    44  GLN44       0.0394
     77  CG        -1.9870   14.3770   20.0100 C.3    44  GLN44       0.0908
     78  CD        -0.8740   14.9600   20.8470 C.2    44  GLN44       0.2608
     79  OE1       -0.1020   14.2100   21.4350 O.2    44  GLN44      -0.2717
     80  NE2       -0.8060   16.2830   20.9330 N.am   44  GLN44      -0.0878
     81  N         -5.4000   19.3550   20.5110 N.3    47  PHE47      -0.1227
     82  CA        -4.1500   20.0910   20.7080 C.3    47  PHE47       0.1736
     83  C         -3.4500   20.3060   19.3900 C.2    47  PHE47       0.2595
     84  O         -3.0240   21.4200   19.1200 O.2    47  PHE47      -0.2718
     85  CB        -3.1880   19.4470   21.6820 C.3    47  PHE47       0.0547
     86  CG        -1.9160   20.1960   21.7960 C.ar   47  PHE47      -0.0202
     87  CD1       -1.8310   21.3130   22.6050 C.ar   47  PHE47      -0.0042
     88  CD2       -0.8420   19.8520   21.0410 C.ar   47  PHE47      -0.0042
     89  CE1       -0.6580   22.0510   22.6730 C.ar   47  PHE47      -0.0003
     90  CE2        0.3160   20.5700   21.1160 C.ar   47  PHE47      -0.0003
     91  CZ         0.3900   21.6840   21.9350 C.ar   47  PHE47      -0.0000
     92  N         -3.3250   19.2590   18.5660 N.am   48  LEU48      -0.1980
     93  CA        -2.5760   19.4280   17.3140 C.3    48  LEU48       0.1596
     94  C         -3.2650   20.4120   16.3230 C.2    48  LEU48       0.2287
     95  O         -2.6090   21.0910   15.5230 O.2    48  LEU48      -0.2864
     96  CB        -2.2460   18.0800   16.6900 C.3    48  LEU48       0.0297
     97  CG        -1.2260   17.2030   17.4630 C.3    48  LEU48       0.0022
     98  CD1       -1.0980   15.9000   16.7390 C.3    48  LEU48       0.0001
     99  CD2        0.1510   17.8260   17.6420 C.3    48  LEU48       0.0001
    100  N         -2.0490   23.7340   17.5190 N.3    51  TYR51      -0.1241
    101  CA        -0.5990   23.7820   17.3450 C.3    51  TYR51       0.1605
    102  C         -0.2380   24.0880   15.8970 C.2    51  TYR51       0.2264
    103  O          0.8810   24.5730   15.6060 O.2    51  TYR51      -0.2867
    104  CB        -0.0870   22.3960   17.7280 C.3    51  TYR51       0.0534
    105  CG         1.3880   22.1010   17.8390 C.ar   51  TYR51      -0.0201
    106  CD1        1.9700   21.1850   16.9940 C.ar   51  TYR51      -0.0009
    107  CD2        2.1720   22.6050   18.8630 C.ar   51  TYR51      -0.0009
    108  CE1        3.2790   20.8130   17.1230 C.ar   51  TYR51       0.0417
    109  CE2        3.5420   22.2190   18.9970 C.ar   51  TYR51       0.0417
    110  CZ         4.0520   21.3060   18.1310 C.ar   51  TYR51       0.1957
    111  OH         5.3650   20.9210   18.1910 O.3    51  TYR51      -0.2866
    112  N         -8.0740   23.0340   22.0460 N.3    58  TYR58      -0.1241
    113  CA        -7.5320   22.5160   23.2880 C.3    58  TYR58       0.1605
    114  C         -7.7550   23.4480   24.5000 C.2    58  TYR58       0.2264
    115  O         -8.3150   23.0230   25.5150 O.2    58  TYR58      -0.2867
    116  CB        -6.0480   22.1760   23.1360 C.3    58  TYR58       0.0534
    117  CG        -5.5280   21.5010   24.3890 C.ar   58  TYR58      -0.0201
    118  CD1       -5.5800   20.1270   24.5290 C.ar   58  TYR58      -0.0009
    119  CD2       -5.0230   22.2500   25.4550 C.ar   58  TYR58      -0.0009
    120  CE1       -5.1260   19.5090   25.6890 C.ar   58  TYR58       0.0417
    121  CE2       -4.5730   21.6420   26.6010 C.ar   58  TYR58       0.0417
    122  CZ        -4.6310   20.2650   26.7160 C.ar   58  TYR58       0.1957
    123  OH        -4.1940   19.6580   27.8710 O.3    58  TYR58      -0.2866
    124  N         -9.7730   22.4630   27.7900 N.3    62  HIS62      -0.1241
    125  CA        -8.9790   21.9690   28.9060 C.3    62  HIS62       0.1621
    126  C         -8.2910   23.0870   29.6300 C.2    62  HIS62       0.2264
    127  O         -7.9430   22.9500   30.7920 O.2    62  HIS62      -0.2867
    128  CB        -7.9840   20.9330   28.3970 C.3    62  HIS62       0.0745
    129  CG        -8.5790   20.0140   27.3860 C.ar   62  HIS62       0.0817
    130  ND1       -9.4920   19.0390   27.7190 N.ar   62  HIS62      -0.2268
    131  CD2       -8.4500   19.9670   26.0410 C.ar   62  HIS62       0.1154
    132  CE1       -9.8810   18.4130   26.6250 C.ar   62  HIS62       0.1986
    133  NE2       -9.2650   18.9610   25.5920 N.ar   62  HIS62      -0.2212
    134  N          2.4760   22.6430   28.2200 N.3    67  LEU67      -0.1245
    135  CA         2.6140   21.1870   28.0740 C.3    67  LEU67       0.1561
    136  C          3.6930   20.6270   28.9650 C.2    67  LEU67       0.2260
    137  O          3.5520   19.5160   29.4840 O.2    67  LEU67      -0.2867
    138  CB         2.9370   20.7900   26.6270 C.3    67  LEU67       0.0270
    139  CG         1.8180   20.6980   25.5950 C.3    67  LEU67       0.0019
    140  CD1        2.3900   19.9910   24.3640 C.3    67  LEU67       0.0001
    141  CD2        0.5290   19.9800   26.1120 C.3    67  LEU67       0.0001
    142  N          2.2270   19.9200   32.1800 N.3    70  ARG70      -0.1231
    143  CA         1.2120   18.8760   32.1600 C.3    70  ARG70       0.1694
    144  C          1.8840   17.5110   32.1100 C.2    70  ARG70       0.2592
    145  O          1.2830   16.5110   32.4830 O.2    70  ARG70      -0.2718
    146  CB         0.2570   19.0950   30.9840 C.3    70  ARG70       0.0321
    147  CG        -0.5200   20.3890   31.1040 C.3    70  ARG70       0.0489
    148  CD        -1.6200   20.5950   30.0560 C.3    70  ARG70       0.2205
    149  NE        -2.9330   20.1640   30.5370 N.pl3  70  ARG70      -0.0865
    150  CZ        -3.9910   20.9390   30.7280 C.cat  70  ARG70       0.5346
    151  NH1       -5.1110   20.3810   31.1700 N.pl3  70  ARG70       0.1354
    152  NH2       -3.9580   22.2470   30.4960 N.pl3  70  ARG70       0.1354
    153  N          3.1520   17.5340   31.6900 N.am   71  HIS71      -0.1976
    154  CA         3.9850   16.3620   31.4400 C.3    71  HIS71       0.1656
    155  C          4.9270   16.0650   32.6310 C.2    71  HIS71       0.2291
    156  O          5.4560   14.9480   32.7550 O.2    71  HIS71      -0.2864
    157  CB         4.7470   16.5210   30.0870 C.3    71  HIS71       0.0771
    158  CG         3.8930   16.2170   28.8780 C.ar   71  HIS71       0.0820
    159  ND1        2.6600   16.7950   28.6760 N.ar   71  HIS71      -0.2267
    160  CD2        4.0640   15.3550   27.8480 C.ar   71  HIS71       0.1154
    161  CE1        2.1210   16.3220   27.5650 C.ar   71  HIS71       0.1986
    162  NE2        2.9400   15.4240   27.0500 N.ar   71  HIS71      -0.2212
    163  N          5.2390   12.8310   34.8800 N.3    74  PHE74      -0.1241
    164  CA         5.6060   11.6080   34.1830 C.3    74  PHE74       0.1605
    165  C          7.1080   11.6060   33.9830 C.2    74  PHE74       0.2264
    166  O          7.7110   12.6840   33.9750 O.2    74  PHE74      -0.2867
    167  CB         4.8630   11.5690   32.8520 C.3    74  PHE74       0.0534
    168  CG         3.3580   11.6200   33.0010 C.ar   74  PHE74      -0.0203
    169  CD1        2.6460   12.7490   32.6190 C.ar   74  PHE74      -0.0042
    170  CD2        2.6530   10.5120   33.5030 C.ar   74  PHE74      -0.0042
    171  CE1        1.2800   12.8020   32.7340 C.ar   74  PHE74      -0.0003
    172  CE2        1.2700   10.5440   33.6360 C.ar   74  PHE74      -0.0003
    173  CZ         0.5690   11.6910   33.2630 C.ar   74  PHE74      -0.0000
    174  N          9.6480   11.5610   31.7720 N.3    76  ILE76      -0.1245
    175  CA         9.9900   11.7810   30.3670 C.3    76  ILE76       0.1561
    176  C         11.4900   11.8700   30.2250 C.2    76  ILE76       0.2260
    177  O         12.0910   12.8870   30.5310 O.2    76  ILE76      -0.2867
    178  CB         9.2640   13.0550   29.7990 C.3    76  ILE76       0.0252
    179  CG1        7.7740   12.7530   29.5630 C.3    76  ILE76       0.0019
    180  CG2        9.8680   13.5130   28.4630 C.3    76  ILE76       0.0019
    181  CD1        6.9090   13.5210   30.3660 C.3    76  ILE76       0.0001
    182  N         12.6590    8.2630   26.0070 N.3    80  ARG80      -0.1231
    183  CA        11.2110    8.2160   25.8560 C.3    80  ARG80       0.1694
    184  C         10.7430    9.2820   24.8720 C.2    80  ARG80       0.2591
    185  O          9.7920    9.0510   24.1130 O.2    80  ARG80      -0.2718
    186  CB        10.4830    8.4870   27.1810 C.3    80  ARG80       0.0321
    187  CG        10.3480    7.3190   28.1490 C.3    80  ARG80       0.0489
    188  CD         9.0010    7.2570   28.9380 C.3    80  ARG80       0.2205
    189  NE         8.8910    5.9820   29.6650 N.pl3  80  ARG80      -0.0865
    190  CZ         9.5250    5.6800   30.8200 C.cat  80  ARG80       0.5346
    191  NH1        9.3850    4.4630   31.3580 N.pl3  80  ARG80       0.1354
    192  NH2       10.2850    6.5670   31.4390 N.pl3  80  ARG80       0.1354
    193  N         11.3620   10.4670   24.9040 N.am   81  ALA81      -0.1980
    194  CA        11.0590   11.5120   23.9080 C.3    81  ALA81       0.1597
    195  C         11.3750   11.0150   22.5150 C.2    81  ALA81       0.2287
    196  O         10.7110   11.4020   21.5310 O.2    81  ALA81      -0.2864
    197  CB        11.8330   12.8340   24.2020 C.3    81  ALA81       0.0319
    198  N          8.5790    8.3460   21.3560 N.3    84  TRP84      -0.1241
    199  CA         7.3880    9.1060   20.9750 C.3    84  TRP84       0.1605
    200  C          7.5620    9.6510   19.5400 C.2    84  TRP84       0.2264
    201  O          6.7060    9.4570   18.6680 O.2    84  TRP84      -0.2867
    202  CB         7.2480   10.2400   21.9880 C.3    84  TRP84       0.0550
    203  CG         6.0360   11.0320   21.8900 C.ar   84  TRP84       0.0003
    204  CD1        5.0280   11.0330   22.7630 C.ar   84  TRP84       0.0946
    205  CD2        5.7150   12.0330   20.8910 C.ar   84  TRP84       0.0152
    206  NE1        4.0640   11.9240   22.3690 N.ar   84  TRP84      -0.2442
    207  CE2        4.4640   12.5500   21.2180 C.ar   84  TRP84       0.0810
    208  CE3        6.3420   12.4970   19.7290 C.ar   84  TRP84       0.0012
    209  CZ2        3.8230   13.5420   20.4530 C.ar   84  TRP84       0.0191
    210  CZ3        5.6960   13.4620   18.9530 C.ar   84  TRP84       0.0001
    211  CH2        4.4450   13.9680   19.3250 C.ar   84  TRP84       0.0015
    212  N          7.6090   19.3360   16.4200 N.3   109  LEU109     -0.1245
    213  CA         7.3400   18.2700   17.3990 C.3   109  LEU109      0.1561
    214  C          8.6390   17.8140   18.0380 C.2   109  LEU109      0.2260
    215  O          8.7070   17.5340   19.2420 O.2   109  LEU109     -0.2867
    216  CB         6.5960   17.0670   16.7350 C.3   109  LEU109      0.0270
    217  CG         5.0960   16.8280   16.9680 C.3   109  LEU109      0.0019
    218  CD1        4.3660   18.0440   17.4730 C.3   109  LEU109      0.0001
    219  CD2        4.3590   16.2480   15.7520 C.3   109  LEU109      0.0001
    220  N          9.4900   20.2970   20.5780 N.3   112  THR112     -0.1203
    221  CA         8.5780   20.2980   21.7100 C.3   112  THR112      0.1994
    222  C          8.8390   19.1070   22.6320 C.2   112  THR112      0.2617
    223  O          8.7840   19.2320   23.8620 O.2   112  THR112     -0.2717
    224  CB         7.1500   20.3220   21.2090 C.3   112  THR112      0.1784
    225  OG1        6.9210   21.5650   20.5110 O.3   112  THR112     -0.2211
    226  CG2        6.1550   20.3530   22.4060 C.3   112  THR112      0.0376
    227  N          9.1330   17.9570   22.0280 N.am  113  ALA113     -0.1979
    228  CA         9.2840   16.7220   22.7860 C.3   113  ALA113      0.1597
    229  C         10.5550   16.8270   23.6130 C.2   113  ALA113      0.2287
    230  O         10.6010   16.3640   24.7390 O.2   113  ALA113     -0.2864
    231  CB         9.3160   15.4980   21.8630 C.3   113  ALA113      0.0319
    232  N          9.9380   18.7110   26.6280 N.3   116  MET116     -0.1245
    233  CA         9.1970   17.9020   27.6100 C.3   116  MET116      0.1570
    234  C         10.0870   17.1280   28.5680 C.2   116  MET116      0.2261
    235  O          9.6880   16.8800   29.6980 O.2   116  MET116     -0.2867
    236  CB         8.2640   16.8700   26.9380 C.3   116  MET116      0.0387
    237  CG         7.0720   17.3990   26.1800 C.3   116  MET116      0.0595
    238  SD         6.1360   18.6720   26.9950 S.3   116  MET116     -0.1393
    239  CE         7.0150   20.2550   26.2980 C.3   116  MET116      0.0692
@<TRIPOS>BOND
     1    95    94    2
     2   103   102    2
     3   219   217    1
     4   102   101    1
     5    94    93    1
     6   212   213    1
     7    96    93    1
     8    96    97    1
     9   216   217    1
    10   216   213    1
    11    98    97    1
    12   217   218    1
    13   106   108   ar
    14   106   105   ar
    15   108   110   ar
    16    93    92    1
    17   101   100    1
    18   101   104    1
    19   213   214    1
    20    97    99    1
    21   104   105    1
    22   105   107   ar
    23   214   215    2
    24   110   111    1
    25   110   109   ar
    26     1     2    1
    27    92    83   am
    28   201   200    2
    29   107   109   ar
    30   210   211   ar
    31   210   208   ar
    32    75    74    2
    33    84    83    2
    34   211   209   ar
    35    83    82    1
    36     3     2    1
    37     3     4    2
    38     2     5    1
    39   200   199    1
    40    74    73    1
    41   208   205   ar
    42    77    76    1
    43    77    78    1
    44     5     6    1
    45     7     9   ar
    46     7     6   ar
    47   209   207   ar
    48   225   224    1
    49    81    82    1
    50   220   221    1
    51    82    85    1
    52     9    11   ar
    53    76    73    1
    54     6     8   ar
    55    78    80   am
    56    78    79    2
    57   205   207   ar
    58   205   203   ar
    59   199   198    1
    60   199   202    1
    61    88    90   ar
    62    88    86   ar
    63    73    72    1
    64    90    91   ar
    65   224   221    1
    66   224   226    1
    67   207   206   ar
    68   196   195    2
    69    85    86    1
    70   221   222    1
    71    86    87   ar
    72   231   228    1
    73    11    12    1
    74    11    10   ar
    75   203   202    1
    76   203   204   ar
    77     8    10   ar
    78    72    65   am
    79    91    89   ar
    80   227   222   am
    81   227   228    1
    82   112   113    1
    83   206   204   ar
    84    66    65    2
    85   195   194    1
    86    65    64    1
    87    87    89   ar
    88   222   223    2
    89   228   229    1
    90    63    64    1
    91    19    18    1
    92   116   113    1
    93   116   117    1
    94    59    58    2
    95   113   114    1
    96    64    67    1
    97    58    57    1
    98   229   230    2
    99   194   197    1
   100   194   193    1
   101   185   184    2
   102   140   139    1
   103    18    17    1
   104    18    20    1
   105   117   118   ar
   106   117   119   ar
   107   114   115    2
   108   118   120   ar
   109    50    49    2
   110    67    68    1
   111   184   193   am
   112   184   183    1
   113    17    14    1
   114    57    60    1
   115    57    56    1
   116    62    60    1
   117    49    56   am
   118    49    48    1
   119    47    48    1
   120    60    61    1
   121   119   121   ar
   122    39    38   ar
   123    39    37   ar
   124   133   131   ar
   125   133   132   ar
   126   139   141    1
   127   139   138    1
   128    48    51    1
   129    68    69    1
   130   120   122   ar
   131    38    36   ar
   132   183   182    1
   133   183   186    1
   134    37    35   ar
   135   131   129   ar
   136    13    14    1
   137   237   236    1
   138   237   238    1
   139    54    53   ar
   140   239   238    1
   141    14    15    1
   142    55    53   ar
   143    36    34   ar
   144   121   122   ar
   145   132   130   ar
   146   138   135    1
   147    35    34   ar
   148   232   233    1
   149    53    52    1
   150   122   123    1
   151    15    16    2
   152    34    33    1
   153   236   233    1
   154   162   161   ar
   155   162   160   ar
   156    51    52    1
   157   186   187    1
   158    69    70    1
   159   129   130   ar
   160   129   128    1
   161   161   159   ar
   162   233   234    1
   163    33    30    1
   164    70    71    1
   165   124   125    1
   166   160   158   ar
   167   135   134    1
   168   135   136    1
   169   187   188    1
   170    43    42    2
   171   128   125    1
   172   180   178    1
   173   234   235    2
   174   159   158   ar
   175   158   157    1
   176   125   126    1
   177   188   189    1
   178   136   137    2
   179    30    29    1
   180    30    31    1
   181    42    41    1
   182   179   178    1
   183   179   181    1
   184    46    40    1
   185    46    45    1
   186   126   127    2
   187   189   190    2
   188    29    23   am
   189    44    45    1
   190    44    41    1
   191   178   175    1
   192    28    26    1
   193    26    25    1
   194    40    31   am
   195    40    41    1
   196    31    32    2
   197   148   149    1
   198   148   147    1
   199   157   154    1
   200   176   175    1
   201   176   177    2
   202   175   174    1
   203   152   150    1
   204   149   150    2
   205   150   151    1
   206    21    22    1
   207    23    22    1
   208    23    24    2
   209   190   191    1
   210   190   192    1
   211   146   147    1
   212   146   143    1
   213    25    22    1
   214    25    27    1
   215   154   153    1
   216   154   155    1
   217   153   144   am
   218   144   143    1
   219   144   145    2
   220   143   142    1
   221   169   171   ar
   222   169   168   ar
   223   155   156    2
   224   171   173   ar
   225   167   168    1
   226   167   164    1
   227   168   170   ar
   228   173   172   ar
   229   170   172   ar
   230   166   165    2
   231   165   164    1
   232   164   163    1
