@<TRIPOS>MOLECULE
tmp/1uxgA01.pdb
 95 88 0 0 0
SMALL
GASTEIGER

@<TRIPOS>ATOM
      1  N         85.0230  117.3690   75.9070 N.3    80  PRO80      -0.2102
      2  CA        85.2480  115.9310   76.0720 C.3    80  PRO80       0.1504
      3  C         84.6170  115.4670   77.3780 C.2    80  PRO80       0.2575
      4  O         84.3470  116.2730   78.2650 O.2    80  PRO80      -0.2718
      5  CB        86.7700  115.8340   76.1000 C.3    80  PRO80       0.0282
      6  CG        87.1320  117.0550   76.8930 C.3    80  PRO80       0.0208
      7  CD        86.2320  118.1300   76.2780 C.3    80  PRO80       0.0893
      8  N         84.3890  114.1670   77.5080 N.am   81  ARG81      -0.1980
      9  CA        83.7880  113.6490   78.7260 C.3    81  ARG81       0.1597
     10  C         84.8250  113.3680   79.7980 C.2    81  ARG81       0.2287
     11  O         86.0260  113.3210   79.5250 O.2    81  ARG81      -0.2864
     12  CB        82.9950  112.3750   78.4160 C.3    81  ARG81       0.0334
     13  CG        83.7680  111.3730   77.5970 C.3    81  ARG81       0.0492
     14  CD        82.8600  110.3310   76.9580 C.3    81  ARG81       0.2205
     15  NE        82.5490  109.2230   77.8500 N.pl3  81  ARG81      -0.0865
     16  CZ        82.7460  107.9400   77.5500 C.cat  81  ARG81       0.5346
     17  NH1       83.2650  107.5900   76.3800 N.pl3  81  ARG81       0.1354
     18  NH2       82.4010  107.0030   78.4180 N.pl3  81  ARG81       0.1354
     19  N         79.0610  109.5450   76.0800 N.3    87  ARG87      -0.1245
     20  CA        79.2440  110.5360   75.0380 C.3    87  ARG87       0.1563
     21  C         77.9530  111.3390   74.8590 C.2    87  ARG87       0.2260
     22  O         77.9870  112.5200   74.5020 O.2    87  ARG87      -0.2867
     23  CB        79.6200  109.8630   73.7200 C.3    87  ARG87       0.0307
     24  CG        80.9240  109.0550   73.7600 C.3    87  ARG87       0.0489
     25  CD        81.2540  108.5560   72.3620 C.3    87  ARG87       0.2205
     26  NE        82.4560  107.7250   72.2920 N.pl3  87  ARG87      -0.0865
     27  CZ        82.5740  106.5170   72.8370 C.cat  87  ARG87       0.5346
     28  NH1       81.5640  105.9820   73.5120 N.pl3  87  ARG87       0.1354
     29  NH2       83.7000  105.8290   72.6830 N.pl3  87  ARG87       0.1354
     30  N         81.5800  114.7790   69.9420 N.3   119  ASN119     -0.1240
     31  CA        80.6410  113.7700   70.4320 C.3   119  ASN119      0.1653
     32  C         79.3920  114.4510   71.0090 C.2   119  ASN119      0.2266
     33  O         79.4680  115.5810   71.4950 O.2   119  ASN119     -0.2867
     34  CB        81.2760  112.9310   71.5380 C.3   119  ASN119      0.1155
     35  CG        82.0530  111.7460   70.9970 C.2   119  ASN119      0.2627
     36  OD1       81.6030  111.0720   70.0740 O.2   119  ASN119     -0.2716
     37  ND2       83.2190  111.4790   71.5820 N.am  119  ASN119     -0.0877
     38  N         88.4460  104.9000   64.1160 N.3   146  LEU146     -0.1245
     39  CA        89.0110  104.7910   65.4550 C.3   146  LEU146      0.1561
     40  C         88.5480  103.5350   66.1930 C.2   146  LEU146      0.2260
     41  O         89.3340  102.8700   66.8750 O.2   146  LEU146     -0.2867
     42  CB        88.6270  106.0030   66.3130 C.3   146  LEU146      0.0270
     43  CG        88.8180  105.8280   67.8240 C.3   146  LEU146      0.0019
     44  CD1       90.3130  105.7690   68.1870 C.3   146  LEU146      0.0001
     45  CD2       88.1610  106.9850   68.5520 C.3   146  LEU146      0.0001
     46  N         90.9270  100.3150   67.3850 N.3   150  ARG150     -0.1245
     47  CA        91.1100   99.7720   68.7210 C.3   150  ARG150      0.1563
     48  C         90.9520   98.2540   68.6350 C.2   150  ARG150      0.2260
     49  O         91.7240   97.4950   69.2330 O.2   150  ARG150     -0.2867
     50  CB        90.0850  100.3440   69.7030 C.3   150  ARG150      0.0307
     51  CG        90.3180  101.8130   70.0640 C.3   150  ARG150      0.0489
     52  CD        89.5350  102.2110   71.3010 C.3   150  ARG150      0.2205
     53  NE        89.8770  103.5630   71.7410 N.pl3 150  ARG150     -0.0865
     54  CZ        89.0620  104.6110   71.6680 C.cat 150  ARG150      0.5346
     55  NH1       87.8320  104.4770   71.1720 N.pl3 150  ARG150      0.1354
     56  NH2       89.4820  105.8020   72.0870 N.pl3 150  ARG150      0.1354
     57  N         78.5990  105.7550   67.0870 N.3   174  HIS174     -0.1241
     58  CA        79.8020  105.8090   67.8910 C.3   174  HIS174      0.1621
     59  C         79.4000  105.8370   69.3600 C.2   174  HIS174      0.2264
     60  O         79.3710  106.8960   69.9880 O.2   174  HIS174     -0.2867
     61  CB        80.6080  107.0580   67.5310 C.3   174  HIS174      0.0745
     62  CG        81.9490  107.1160   68.1890 C.ar  174  HIS174      0.0817
     63  ND1       82.9290  106.1730   67.9590 N.ar  174  HIS174     -0.2268
     64  CD2       82.4680  107.9900   69.0840 C.ar  174  HIS174      0.1154
     65  CE1       83.9930  106.4630   68.6870 C.ar  174  HIS174      0.1986
     66  NE2       83.7390  107.5600   69.3770 N.ar  174  HIS174     -0.2212
     67  N         86.8140  103.6600   74.4270 N.3   212  GLY212     -0.1225
     68  CA        86.9720  105.0710   74.7420 C.3   212  GLY212      0.1811
     69  C         86.9410  105.2740   76.2400 C.2   212  GLY212      0.2280
     70  O         87.7690  105.9970   76.8060 O.2   212  GLY212     -0.2866
     71  N         89.4910  107.0340   79.1460 N.3   216  VAL216     -0.1245
     72  CA        88.9930  108.0970   80.0100 C.3   216  VAL216      0.1561
     73  C         89.2630  107.7500   81.4670 C.2   216  VAL216      0.2260
     74  O         89.6450  108.6080   82.2590 O.2   216  VAL216     -0.2867
     75  CB        87.4640  108.3150   79.8190 C.3   216  VAL216      0.0252
     76  CG1       86.9360  109.2430   80.8990 C.3   216  VAL216      0.0019
     77  CG2       87.1900  108.8970   78.4480 C.3   216  VAL216      0.0019
     78  N         89.8870  112.5250   77.6300 N.3   223  SER223     -0.1202
     79  CA        89.7080  111.3250   76.8310 C.3   223  SER223      0.2020
     80  C         90.8230  111.1710   75.7980 C.2   223  SER223      0.2618
     81  O         91.7220  112.0120   75.7090 O.2   223  SER223     -0.2717
     82  CB        88.3360  111.3620   76.1450 C.3   223  SER223      0.2103
     83  OG        88.0950  112.6250   75.5410 O.3   223  SER223     -0.2182
     84  N         90.7510  110.0960   75.0200 N.am  224  ALA224     -0.1979
     85  CA        91.7460  109.7810   74.0020 C.3   224  ALA224      0.1597
     86  C         91.9780  110.8370   72.9180 C.2   224  ALA224      0.2287
     87  O         91.0670  111.5840   72.5500 O.2   224  ALA224     -0.2864
     88  CB        91.3870  108.4470   73.3440 C.3   224  ALA224      0.0319
     89  N         92.4170  108.8640   68.0120 N.3   228  PRO228     -0.2116
     90  CA        91.3500  109.6540   67.3800 C.3   228  PRO228      0.1372
     91  C         91.9220  110.5880   66.2990 C.2   228  PRO228      0.2244
     92  O         91.3770  110.7080   65.2020 O.2   228  PRO228     -0.2868
     93  CB        90.7600  110.4230   68.5570 C.3   228  PRO228      0.0268
     94  CG        90.9050  109.4630   69.6830 C.3   228  PRO228      0.0207
     95  CD        92.3070  108.9090   69.4790 C.3   228  PRO228      0.0892
@<TRIPOS>BOND
     1    38    39    1
     2    92    91    2
     3    39    40    1
     4    39    42    1
     5    40    41    2
     6    91    90    1
     7    42    43    1
     8    57    58    1
     9    90    89    1
    10    90    93    1
    11    46    47    1
    12    61    58    1
    13    61    62    1
    14    43    44    1
    15    43    45    1
    16    58    59    1
    17    63    62   ar
    18    63    65   ar
    19    89    95    1
    20    62    64   ar
    21    93    94    1
    22    48    47    1
    23    48    49    2
    24    65    66   ar
    25    47    50    1
    26    64    66   ar
    27    59    60    2
    28    95    94    1
    29    50    51    1
    30    30    31    1
    31    51    52    1
    32    36    35    2
    33    31    32    1
    34    31    34    1
    35    35    34    1
    36    35    37   am
    37    32    33    2
    38    55    54    1
    39    52    53    1
    40    54    53    2
    41    54    56    1
    42    26    25    1
    43    26    27    2
    44    25    24    1
    45    87    86    2
    46    29    27    1
    47    27    28    1
    48    86    85    1
    49    88    85    1
    50    23    24    1
    51    23    20    1
    52    85    84    1
    53    67    68    1
    54    22    21    2
    55    68    69    1
    56    21    20    1
    57    84    80   am
    58    20    19    1
    59    83    82    1
    60    81    80    2
    61    80    79    1
    62     1     2    1
    63     1     7    1
    64     2     5    1
    65     2     3    1
    66     5     6    1
    67    82    79    1
    68    69    70    2
    69     7     6    1
    70    17    16    1
    71    79    78    1
    72    14    13    1
    73    14    15    1
    74     3     8   am
    75     3     4    2
    76     8     9    1
    77    16    15    2
    78    16    18    1
    79    13    12    1
    80    12     9    1
    81    77    75    1
    82     9    10    1
    83    71    72    1
    84    11    10    2
    85    75    72    1
    86    75    76    1
    87    72    73    1
    88    73    74    2
