@<TRIPOS>MOLECULE
tmp/1uxpA00.pdb
 130 125 0 0 0
SMALL
GASTEIGER

@<TRIPOS>ATOM
      1  N        -25.1540   76.1640   36.3640 N.3    70  ARG70      -0.1231
      2  CA       -26.5240   76.5080   36.7300 C.3    70  ARG70       0.1694
      3  C        -26.5890   77.7020   37.6760 C.2    70  ARG70       0.2592
      4  O        -27.5000   78.5370   37.5780 O.2    70  ARG70      -0.2718
      5  CB       -27.2120   75.2900   37.3710 C.3    70  ARG70       0.0321
      6  CG       -28.7060   75.4650   37.6440 C.3    70  ARG70       0.0489
      7  CD       -29.3320   74.2060   38.2560 C.3    70  ARG70       0.2205
      8  NE       -30.7270   74.4230   38.6440 N.pl3  70  ARG70      -0.0865
      9  CZ       -31.4910   73.5240   39.2690 C.cat  70  ARG70       0.5346
     10  NH1      -31.0090   72.3260   39.5900 N.pl3  70  ARG70       0.1354
     11  NH2      -32.7440   73.8290   39.5780 N.pl3  70  ARG70       0.1354
     12  N        -25.6180   77.7930   38.5860 N.am   71  ASP71      -0.1974
     13  CA       -25.6250   78.8860   39.5460 C.3    71  ASP71       0.1709
     14  C        -24.9700   80.1630   39.0680 C.2    71  ASP71       0.2293
     15  O        -24.7900   81.0920   39.8480 O.2    71  ASP71      -0.2864
     16  CB       -25.0480   78.4440   40.8960 C.3    71  ASP71       0.1436
     17  CG       -25.9580   77.4410   41.6180 C.2    71  ASP71       0.3671
     18  OD1      -27.1920   77.4450   41.3800 O.co2  71  ASP71      -0.2456
     19  OD2      -25.4430   76.6510   42.4290 O.co2  71  ASP71      -0.2456
     20  N        -25.8500   83.1080   37.0040 N.3    73  PRO73      -0.2102
     21  CA       -27.0670   83.6280   36.3590 C.3    73  PRO73       0.1504
     22  C        -26.9320   83.7980   34.8480 C.2    73  PRO73       0.2576
     23  O        -25.8450   84.0650   34.3420 O.2    73  PRO73      -0.2718
     24  CB       -27.3140   84.9420   37.0940 C.3    73  PRO73       0.0282
     25  CG       -25.8960   85.4110   37.4010 C.3    73  PRO73       0.0208
     26  CD       -25.2130   84.1290   37.8570 C.3    73  PRO73       0.0893
     27  N        -28.0440   83.6260   34.1380 N.am   74  GLY74      -0.1957
     28  CA       -28.0550   83.7490   32.6910 C.3    74  GLY74       0.1869
     29  C        -27.3810   85.0110   32.1690 C.2    74  GLY74       0.2309
     30  O        -26.6600   84.9930   31.1550 O.2    74  GLY74      -0.2863
     31  N        -23.8760   84.2400   31.9420 N.3    77  ARG77      -0.1245
     32  CA       -23.5600   83.2320   30.9370 C.3    77  ARG77       0.1563
     33  C        -23.5180   83.9390   29.5950 C.2    77  ARG77       0.2260
     34  O        -22.6910   83.6430   28.7430 O.2    77  ARG77      -0.2867
     35  CB       -24.6320   82.1370   30.8730 C.3    77  ARG77       0.0307
     36  CG       -24.9470   81.4650   32.1760 C.3    77  ARG77       0.0489
     37  CD       -25.5390   80.0830   31.9340 C.3    77  ARG77       0.2205
     38  NE       -26.2290   79.6150   33.1330 N.pl3  77  ARG77      -0.0865
     39  CZ       -27.5530   79.5820   33.2790 C.cat  77  ARG77       0.5346
     40  NH1      -28.3610   79.9760   32.2950 N.pl3  77  ARG77       0.1354
     41  NH2      -28.0640   79.1830   34.4310 N.pl3  77  ARG77       0.1354
     42  N        -37.3650   81.1300   23.4880 N.3   130  LYS130     -0.1231
     43  CA       -38.0760   79.9140   23.8710 C.3   130  LYS130      0.1693
     44  C        -37.9130   79.6420   25.3630 C.2   130  LYS130      0.2592
     45  O        -37.9870   78.4910   25.8200 O.2   130  LYS130     -0.2718
     46  CB       -37.5730   78.7040   23.0740 C.3   130  LYS130      0.0285
     47  CG       -37.8140   78.7720   21.5800 C.3   130  LYS130      0.0035
     48  CD       -39.2870   78.9560   21.2330 C.3   130  LYS130      0.0206
     49  CE       -39.4900   79.0490   19.7100 C.3   130  LYS130      0.1093
     50  NZ       -40.9240   79.1470   19.2930 N.3   130  LYS130     -0.1314
     51  N        -37.6470   80.7040   26.1160 N.am  131  ILE131     -0.1966
     52  CA       -37.5230   80.5910   27.5610 C.3   131  ILE131      0.1727
     53  C        -38.8250   81.1510   28.1240 C.2   131  ILE131      0.2617
     54  O        -39.3310   82.1870   27.6600 O.2   131  ILE131     -0.2715
     55  CB       -36.3220   81.3960   28.1130 C.3   131  ILE131      0.0290
     56  CG1      -35.0830   80.5070   28.1080 C.3   131  ILE131      0.0022
     57  CG2      -36.6160   81.9100   29.5230 C.3   131  ILE131      0.0023
     58  CD1      -33.9090   81.0730   28.8770 C.3   131  ILE131      0.0001
     59  N        -39.3710   80.4570   29.1120 N.am  132  GLY132     -0.1940
     60  CA       -40.6160   80.8930   29.7070 C.3   132  GLY132      0.2014
     61  C        -41.5250   79.6980   29.8130 C.2   132  GLY132      0.2639
     62  O        -41.6100   78.8970   28.8910 O.2   132  GLY132     -0.2714
     63  N        -42.2060   79.5660   30.9330 N.am  133  GLY133     -0.1954
     64  CA       -43.0770   78.4290   31.0910 C.3   133  GLY133      0.1869
     65  C        -44.5300   78.6820   30.7840 C.2   133  GLY133      0.2309
     66  O        -44.9130   79.7350   30.2760 O.2   133  GLY133     -0.2863
     67  N        -42.2500   74.6630   33.5450 N.3   152  ARG152     -0.1231
     68  CA       -41.0890   75.4140   33.1060 C.3   152  ARG152      0.1694
     69  C        -39.9630   74.4630   32.7470 C.2   152  ARG152      0.2592
     70  O        -40.1190   73.2410   32.8550 O.2   152  ARG152     -0.2718
     71  CB       -40.6670   76.4020   34.1920 C.3   152  ARG152      0.0321
     72  CG       -40.5630   75.7800   35.5480 C.3   152  ARG152      0.0489
     73  CD       -39.1400   75.7850   35.9780 C.3   152  ARG152      0.2205
     74  NE       -38.7940   77.0310   36.6450 N.pl3 152  ARG152     -0.0865
     75  CZ       -37.5560   77.5010   36.7370 C.cat 152  ARG152      0.5346
     76  NH1      -36.5400   76.8340   36.1860 N.pl3 152  ARG152      0.1354
     77  NH2      -37.3360   78.6200   37.4140 N.pl3 152  ARG152      0.1354
     78  N        -38.8430   75.0130   32.2840 N.am  153  ARG153     -0.1966
     79  CA       -37.7240   74.1610   31.9050 C.3   153  ARG153      0.1729
     80  C        -36.5810   74.2730   32.8850 C.2   153  ARG153      0.2616
     81  O        -36.4140   75.2820   33.5800 O.2   153  ARG153     -0.2715
     82  CB       -37.2830   74.4790   30.4820 C.3   153  ARG153      0.0348
     83  CG       -38.4860   74.7220   29.5910 C.3   153  ARG153      0.0492
     84  CD       -38.1760   74.6960   28.1110 C.3   153  ARG153      0.2205
     85  NE       -38.2840   73.3480   27.5660 N.pl3 153  ARG153     -0.0865
     86  CZ       -39.0110   73.0330   26.4950 C.cat 153  ARG153      0.5346
     87  NH1      -39.7040   73.9890   25.8640 N.pl3 153  ARG153      0.1354
     88  NH2      -39.0240   71.7740   26.0460 N.pl3 153  ARG153      0.1354
     89  N        -35.8060   73.2040   32.9480 N.am  154  GLU154     -0.1964
     90  CA       -34.6950   73.1180   33.8680 C.3   154  GLU154      0.1718
     91  C        -33.5610   72.4320   33.1250 C.2   154  GLU154      0.2458
     92  O        -33.8070   71.5560   32.3000 O.2   154  GLU154     -0.2730
     93  CB       -35.1530   72.3010   35.0860 C.3   154  GLU154      0.0428
     94  CG       -34.1600   72.1830   36.2180 C.3   154  GLU154      0.1163
     95  CD       -34.8250   71.8640   37.5620 C.2   154  GLU154      0.3649
     96  OE1      -34.4580   70.8190   38.1890 O.co2 154  GLU154     -0.2457
     97  OE2      -35.7020   72.6740   37.9830 O.co2 154  GLU154     -0.2457
     98  N        -32.3070   72.8630   33.3540 N.am  155  PRO155     -0.2727
     99  CA       -31.2040   72.1980   32.6470 C.3   155  PRO155      0.1402
    100  C        -31.0560   70.7630   33.1440 C.2   155  PRO155      0.2269
    101  O        -31.2450   70.4750   34.3280 O.2   155  PRO155     -0.2865
    102  CB       -29.9830   73.0620   32.9920 C.3   155  PRO155      0.0296
    103  CG       -30.3320   73.6370   34.3330 C.3   155  PRO155      0.0237
    104  CD       -31.8130   73.9920   34.1650 C.3   155  PRO155      0.0939
    105  N        -28.5280   77.5710   28.9170 N.3   182  TYR182     -0.1241
    106  CA       -29.6320   77.1640   29.7930 C.3   182  TYR182      0.1605
    107  C        -29.1990   76.6400   31.1700 C.2   182  TYR182      0.2264
    108  O        -30.0430   76.2830   31.9960 O.2   182  TYR182     -0.2867
    109  CB       -30.5170   76.1310   29.0770 C.3   182  TYR182      0.0534
    110  CG       -31.1390   76.6770   27.8050 C.ar  182  TYR182     -0.0201
    111  CD1      -31.9520   77.8030   27.8390 C.ar  182  TYR182     -0.0009
    112  CD2      -30.8660   76.1000   26.5590 C.ar  182  TYR182     -0.0009
    113  CE1      -32.4700   78.3470   26.6760 C.ar  182  TYR182      0.0417
    114  CE2      -31.3770   76.6420   25.3810 C.ar  182  TYR182      0.0417
    115  CZ       -32.1780   77.7660   25.4450 C.ar  182  TYR182      0.1957
    116  OH       -32.6880   78.3300   24.2780 O.3   182  TYR182     -0.2866
    117  N        -33.2480   74.2110   22.8190 N.3   477  VAL477     -0.1245
    118  CA       -33.5540   74.1650   24.2400 C.3   477  VAL477      0.1561
    119  C        -34.2060   72.8240   24.6100 C.2   477  VAL477      0.2260
    120  O        -33.9510   72.2570   25.6690 O.2   477  VAL477     -0.2867
    121  CB       -34.5100   75.3310   24.6460 C.3   477  VAL477      0.0252
    122  CG1      -35.8420   75.2000   23.9220 C.3   477  VAL477      0.0019
    123  CG2      -34.7190   75.3410   26.1650 C.3   477  VAL477      0.0019
    124  N        -32.6670   70.4490   27.9860 N.3   481  THR481     -0.1218
    125  CA       -33.5120   70.9340   29.0350 C.3   481  THR481      0.1862
    126  C        -34.6540   69.9370   29.2900 C.2   481  THR481      0.2287
    127  O        -35.0380   69.1780   28.3970 O.2   481  THR481     -0.2866
    128  CB       -33.9950   72.3180   28.5770 C.3   481  THR481      0.1770
    129  OG1      -33.3150   73.3190   29.3400 O.3   481  THR481     -0.2211
    130  CG2      -35.4700   72.4680   28.6490 C.3   481  THR481      0.0375
@<TRIPOS>BOND
     1    50    49    1
     2    49    48    1
     3    48    47    1
     4    47    46    1
     5   117   118    1
     6    46    43    1
     7    42    43    1
     8    43    44    1
     9   122   121    1
    10   118   119    1
    11   118   121    1
    12   116   115    1
    13   119   120    2
    14   121   123    1
    15    44    45    2
    16    44    51   am
    17   114   115   ar
    18   114   112   ar
    19   115   113   ar
    20    87    86    1
    21    88    86    1
    22    51    52    1
    23    86    85    2
    24   112   110   ar
    25   113   111   ar
    26    52    55    1
    27    52    53    1
    28    85    84    1
    29    54    53    2
    30   110   111   ar
    31   110   109    1
    32   124   125    1
    33    56    55    1
    34    56    58    1
    35    84    83    1
    36    55    57    1
    37    53    59   am
    38   127   126    2
    39   128   130    1
    40   128   125    1
    41   128   129    1
    42    34    33    2
    43    62    61    2
    44   105   106    1
    45   125   126    1
    46   109   106    1
    47    59    60    1
    48    83    82    1
    49    33    32    1
    50    60    61    1
    51   106   107    1
    52    61    63   am
    53    66    65    2
    54    82    79    1
    55    65    64    1
    56    35    32    1
    57    35    36    1
    58    63    64    1
    59    32    31    1
    60    30    29    2
    61   107   108    2
    62    79    78    1
    63    79    80    1
    64    37    36    1
    65    37    38    1
    66    29    28    1
    67    78    69   am
    68    40    39    1
    69    92    91    2
    70    99   102    1
    71    99   100    1
    72    99    98    1
    73    28    27    1
    74    69    70    2
    75    69    68    1
    76    80    89   am
    77    80    81    2
    78    89    90    1
    79   102   103    1
    80    68    67    1
    81    68    71    1
    82    91    98   am
    83    91    90    1
    84    38    39    2
    85   100   101    2
    86    39    41    1
    87    98   104    1
    88    90    93    1
    89    27    22   am
    90   104   103    1
    91    71    72    1
    92    23    22    2
    93    22    21    1
    94    93    94    1
    95    72    73    1
    96    73    74    1
    97    76    75    1
    98    94    95    1
    99    21    20    1
   100    21    24    1
   101     1     2    1
   102    74    75    2
   103     2     5    1
   104     2     3    1
   105    75    77    1
   106    20    26    1
   107    24    25    1
   108     5     6    1
   109    25    26    1
   110    95    97   ar
   111    95    96   ar
   112     4     3    2
   113     6     7    1
   114     3    12   am
   115     7     8    1
   116    12    13    1
   117     8     9    2
   118    14    13    1
   119    14    15    2
   120     9    11    1
   121     9    10    1
   122    13    16    1
   123    16    17    1
   124    18    17   ar
   125    17    19   ar
