@<TRIPOS>MOLECULE
tmp/1uxqA01.pdb
 99 96 0 0 0
SMALL
GASTEIGER

@<TRIPOS>ATOM
      1  N        -25.1460   75.8860   35.7320 N.3    70  ARG70      -0.1231
      2  CA       -26.4820   76.2650   36.1820 C.3    70  ARG70       0.1694
      3  C        -26.4680   77.4630   37.1180 C.2    70  ARG70       0.2592
      4  O        -27.3000   78.3730   36.9940 O.2    70  ARG70      -0.2718
      5  CB       -27.1500   75.0610   36.8590 C.3    70  ARG70       0.0321
      6  CG       -28.6370   75.2130   37.1230 C.3    70  ARG70       0.0489
      7  CD       -29.2280   73.9630   37.7500 C.3    70  ARG70       0.2205
      8  NE       -30.6430   74.1580   38.0470 N.pl3  70  ARG70      -0.0865
      9  CZ       -31.4310   73.2490   38.6210 C.cat  70  ARG70       0.5346
     10  NH1      -30.9510   72.0540   38.9750 N.pl3  70  ARG70       0.1354
     11  NH2      -32.7050   73.5410   38.8390 N.pl3  70  ARG70       0.1354
     12  N        -25.5040   77.5000   38.0360 N.am   71  ASP71      -0.1974
     13  CA       -25.4870   78.6090   38.9670 C.3    71  ASP71       0.1709
     14  C        -24.8870   79.9000   38.4560 C.2    71  ASP71       0.2293
     15  O        -24.7980   80.8700   39.2020 O.2    71  ASP71      -0.2864
     16  CB       -24.8920   78.1830   40.3090 C.3    71  ASP71       0.1436
     17  CG       -25.8110   77.1990   41.0580 C.2    71  ASP71       0.3671
     18  OD1      -27.0560   77.3140   40.9040 O.co2  71  ASP71      -0.2456
     19  OD2      -25.3030   76.3200   41.7940 O.co2  71  ASP71      -0.2456
     20  N        -25.7830   82.8890   36.3750 N.3    73  PRO73      -0.2102
     21  CA       -27.0260   83.3270   35.7310 C.3    73  PRO73       0.1504
     22  C        -26.8960   83.5260   34.2220 C.2    73  PRO73       0.2576
     23  O        -25.8100   83.7920   33.7110 O.2    73  PRO73      -0.2718
     24  CB       -27.3740   84.6090   36.4840 C.3    73  PRO73       0.0282
     25  CG       -25.9830   85.1830   36.8100 C.3    73  PRO73       0.0208
     26  CD       -25.1770   83.9560   37.1980 C.3    73  PRO73       0.0893
     27  N        -28.0210   83.3880   33.5210 N.am   74  GLY74      -0.1957
     28  CA       -28.0360   83.5340   32.0810 C.3    74  GLY74       0.1869
     29  C        -27.3850   84.8120   31.5830 C.2    74  GLY74       0.2309
     30  O        -26.6890   84.8140   30.5620 O.2    74  GLY74      -0.2863
     31  N        -23.8750   84.0970   31.4560 N.3    77  ARG77      -0.1245
     32  CA       -23.5710   83.0920   30.4400 C.3    77  ARG77       0.1563
     33  C        -23.4920   83.7690   29.0840 C.2    77  ARG77       0.2260
     34  O        -22.6450   83.4520   28.2640 O.2    77  ARG77      -0.2867
     35  CB       -24.6540   82.0040   30.3800 C.3    77  ARG77       0.0307
     36  CG       -24.6990   81.0840   31.5740 C.3    77  ARG77       0.0489
     37  CD       -25.5530   79.8600   31.2840 C.3    77  ARG77       0.2205
     38  NE       -26.1280   79.3710   32.5300 N.pl3  77  ARG77      -0.0865
     39  CZ       -27.4320   79.2900   32.7820 C.cat  77  ARG77       0.5346
     40  NH1      -28.3280   79.6450   31.8640 N.pl3  77  ARG77       0.1354
     41  NH2      -27.8330   78.9040   33.9840 N.pl3  77  ARG77       0.1354
     42  N        -37.3820   80.0780   25.7200 N.3   131  ILE131     -0.1245
     43  CA       -37.0370   79.7520   27.0960 C.3   131  ILE131      0.1561
     44  C        -38.1430   79.7740   28.1520 C.2   131  ILE131      0.2260
     45  O        -38.0780   78.9930   29.1160 O.2   131  ILE131     -0.2867
     46  CB       -35.8460   80.6050   27.6000 C.3   131  ILE131      0.0252
     47  CG1      -35.0280   79.7610   28.5780 C.3   131  ILE131      0.0019
     48  CG2      -36.3320   81.8700   28.2990 C.3   131  ILE131      0.0019
     49  CD1      -33.7560   80.4070   29.0320 C.3   131  ILE131      0.0001
     50  N        -42.0400   74.3010   33.2130 N.3   152  ARG152     -0.1231
     51  CA       -40.7770   75.0030   33.0130 C.3   152  ARG152      0.1694
     52  C        -39.7130   74.1380   32.3920 C.2   152  ARG152      0.2592
     53  O        -39.7690   72.9100   32.5040 O.2   152  ARG152     -0.2718
     54  CB       -40.2140   75.3930   34.3580 C.3   152  ARG152      0.0321
     55  CG       -40.5190   76.7280   34.8280 C.3   152  ARG152      0.0489
     56  CD       -39.5790   76.9650   35.9850 C.3   152  ARG152      0.2205
     57  NE       -38.2640   76.4400   35.6390 N.pl3 152  ARG152     -0.0865
     58  CZ       -37.1250   77.0620   35.9050 C.cat 152  ARG152      0.5346
     59  NH1      -37.1490   78.2390   36.5250 N.pl3 152  ARG152      0.1354
     60  NH2      -35.9750   76.5080   35.5330 N.pl3 152  ARG152      0.1354
     61  N        -38.7040   74.7690   31.7950 N.am  153  ARG153     -0.1966
     62  CA       -37.6010   73.9880   31.2410 C.3   153  ARG153      0.1729
     63  C        -36.4600   74.0290   32.2430 C.2   153  ARG153      0.2616
     64  O        -36.2460   75.0130   32.9390 O.2   153  ARG153     -0.2715
     65  CB       -37.1520   74.5320   29.8900 C.3   153  ARG153      0.0348
     66  CG       -38.3140   75.0390   29.0780 C.3   153  ARG153      0.0492
     67  CD       -38.1040   74.8850   27.5870 C.3   153  ARG153      0.2205
     68  NE       -38.1200   73.4890   27.1630 N.pl3 153  ARG153     -0.0865
     69  CZ       -38.7950   73.0670   26.0980 C.cat 153  ARG153      0.5346
     70  NH1      -39.5020   73.9410   25.3870 N.pl3 153  ARG153      0.1354
     71  NH2      -38.7330   71.7990   25.7180 N.pl3 153  ARG153      0.1354
     72  N        -35.7390   72.9320   32.3280 N.am  154  GLU154     -0.1964
     73  CA       -34.6360   72.8230   33.2490 C.3   154  GLU154      0.1718
     74  C        -33.5070   72.1310   32.5050 C.2   154  GLU154      0.2458
     75  O        -33.7650   71.2910   31.6490 O.2   154  GLU154     -0.2730
     76  CB       -35.0940   72.0100   34.4720 C.3   154  GLU154      0.0428
     77  CG       -34.0350   71.7660   35.5130 C.3   154  GLU154      0.1163
     78  CD       -34.6120   71.4860   36.9020 C.2   154  GLU154      0.3649
     79  OE1      -34.2520   70.4330   37.5050 O.co2 154  GLU154     -0.2457
     80  OE2      -35.4060   72.3350   37.3910 O.co2 154  GLU154     -0.2457
     81  N        -32.2400   72.5210   32.7700 N.am  155  PRO155     -0.2727
     82  CA       -31.1370   71.8570   32.0670 C.3   155  PRO155      0.1402
     83  C        -31.0240   70.4300   32.5550 C.2   155  PRO155      0.2269
     84  O        -31.2950   70.1400   33.7120 O.2   155  PRO155     -0.2865
     85  CB       -29.8990   72.6990   32.4460 C.3   155  PRO155      0.0296
     86  CG       -30.2630   73.2770   33.7880 C.3   155  PRO155      0.0237
     87  CD       -31.7450   73.6400   33.6000 C.3   155  PRO155      0.0939
     88  N        -28.5320   77.2740   28.2580 N.3   182  TYR182     -0.1241
     89  CA       -29.6120   76.7870   29.1260 C.3   182  TYR182      0.1605
     90  C        -29.1780   76.2540   30.4910 C.2   182  TYR182      0.2264
     91  O        -30.0190   75.7970   31.2840 O.2   182  TYR182     -0.2867
     92  CB       -30.4420   75.7240   28.3880 C.3   182  TYR182      0.0534
     93  CG       -31.0720   76.2750   27.1320 C.ar  182  TYR182     -0.0201
     94  CD1      -31.9250   77.3750   27.1880 C.ar  182  TYR182     -0.0009
     95  CD2      -30.7820   75.7300   25.8830 C.ar  182  TYR182     -0.0009
     96  CE1      -32.4740   77.9170   26.0340 C.ar  182  TYR182      0.0417
     97  CE2      -31.3230   76.2700   24.7250 C.ar  182  TYR182      0.0417
     98  CZ       -32.1670   77.3620   24.8020 C.ar  182  TYR182      0.1957
     99  OH       -32.6980   77.9170   23.6390 O.3   182  TYR182     -0.2866
@<TRIPOS>BOND
     1    99    98    1
     2    97    98   ar
     3    97    95   ar
     4    98    96   ar
     5    70    69    1
     6    71    69    1
     7    42    43    1
     8    95    93   ar
     9    96    94   ar
    10    69    68    2
    11    43    46    1
    12    43    44    1
    13    93    94   ar
    14    93    92    1
    15    68    67    1
    16    67    66    1
    17    46    48    1
    18    46    47    1
    19    44    45    2
    20    88    89    1
    21    34    33    2
    22    92    89    1
    23    47    49    1
    24    66    65    1
    25    33    32    1
    26    89    90    1
    27    65    62    1
    28    35    32    1
    29    35    36    1
    30    32    31    1
    31    90    91    2
    32    30    29    2
    33    62    61    1
    34    62    63    1
    35    37    36    1
    36    37    38    1
    37    29    28    1
    38    75    74    2
    39    61    52   am
    40    40    39    1
    41    82    85    1
    42    82    83    1
    43    82    81    1
    44    28    27    1
    45    63    72   am
    46    63    64    2
    47    72    73    1
    48    52    53    2
    49    52    51    1
    50    85    86    1
    51    74    81   am
    52    74    73    1
    53    38    39    2
    54    83    84    2
    55    81    87    1
    56    39    41    1
    57    51    50    1
    58    51    54    1
    59    73    76    1
    60    27    22   am
    61    87    86    1
    62    23    22    2
    63    22    21    1
    64    54    55    1
    65    76    77    1
    66    55    56    1
    67    77    78    1
    68    60    58    1
    69    57    58    2
    70    57    56    1
    71    21    20    1
    72    21    24    1
    73     1     2    1
    74    58    59    1
    75     2     5    1
    76     2     3    1
    77    20    26    1
    78    24    25    1
    79    25    26    1
    80     5     6    1
    81    78    80   ar
    82    78    79   ar
    83     4     3    2
    84     3    12   am
    85     6     7    1
    86     7     8    1
    87    12    13    1
    88     8     9    2
    89    14    13    1
    90    14    15    2
    91     9    11    1
    92     9    10    1
    93    13    16    1
    94    16    17    1
    95    18    17   ar
    96    17    19   ar
