@<TRIPOS>MOLECULE
tmp/1uxrA01.pdb
 99 94 0 0 0
SMALL
GASTEIGER

@<TRIPOS>ATOM
      1  N        -25.2770   76.0020   36.1490 N.3    70  ARG70      -0.1231
      2  CA       -26.6290   76.3620   36.5730 C.3    70  ARG70       0.1694
      3  C        -26.6470   77.5700   37.4910 C.2    70  ARG70       0.2592
      4  O        -27.4930   78.4490   37.3520 O.2    70  ARG70      -0.2718
      5  CB       -27.2900   75.1620   37.2640 C.3    70  ARG70       0.0321
      6  CG       -28.7470   75.3720   37.6350 C.3    70  ARG70       0.0489
      7  CD       -29.3450   74.0940   38.2020 C.3    70  ARG70       0.2205
      8  NE       -30.7390   74.2650   38.5960 N.pl3  70  ARG70      -0.0865
      9  CZ       -31.4590   73.3310   39.2170 C.cat  70  ARG70       0.5346
     10  NH1      -30.9150   72.1560   39.5130 N.pl3  70  ARG70       0.1354
     11  NH2      -32.7180   73.5740   39.5530 N.pl3  70  ARG70       0.1354
     12  N        -25.6980   77.6350   38.4190 N.am   71  ASP71      -0.1974
     13  CA       -25.6740   78.7540   39.3410 C.3    71  ASP71       0.1709
     14  C        -25.0490   80.0380   38.8110 C.2    71  ASP71       0.2293
     15  O        -24.9770   81.0310   39.5320 O.2    71  ASP71      -0.2864
     16  CB       -25.0620   78.3290   40.6800 C.3    71  ASP71       0.1436
     17  CG       -25.9510   77.3140   41.4220 C.2    71  ASP71       0.3671
     18  OD1      -27.1920   77.3510   41.2330 O.co2  71  ASP71      -0.2456
     19  OD2      -25.4240   76.4850   42.1880 O.co2  71  ASP71      -0.2456
     20  N        -28.1490   83.5240   34.0130 N.3    74  GLY74      -0.1225
     21  CA       -28.2000   83.6640   32.5760 C.3    74  GLY74       0.1811
     22  C        -27.5350   84.9360   32.0830 C.2    74  GLY74       0.2280
     23  O        -26.8770   84.9400   31.0430 O.2    74  GLY74      -0.2866
     24  N        -23.9400   84.1380   31.7950 N.3    77  ARG77      -0.1245
     25  CA       -23.6730   83.1540   30.7510 C.3    77  ARG77       0.1563
     26  C        -23.5980   83.8730   29.4170 C.2    77  ARG77       0.2260
     27  O        -22.7170   83.6220   28.6050 O.2    77  ARG77      -0.2867
     28  CB       -24.7800   82.0960   30.6770 C.3    77  ARG77       0.0307
     29  CG       -24.8930   81.2180   31.8960 C.3    77  ARG77       0.0489
     30  CD       -25.7710   79.9910   31.6150 C.3    77  ARG77       0.2205
     31  NE       -26.2930   79.5020   32.8840 N.pl3  77  ARG77      -0.0865
     32  CZ       -27.5860   79.4000   33.1810 C.cat  77  ARG77       0.5346
     33  NH1      -28.5230   79.7220   32.2890 N.pl3  77  ARG77       0.1354
     34  NH2      -27.9320   79.0550   34.4110 N.pl3  77  ARG77       0.1354
     35  N        -37.4220   79.9350   26.0580 N.3   131  ILE131     -0.1245
     36  CA       -37.0600   79.5910   27.4350 C.3   131  ILE131      0.1561
     37  C        -38.1900   79.6910   28.4680 C.2   131  ILE131      0.2260
     38  O        -38.1570   79.0070   29.4910 O.2   131  ILE131     -0.2867
     39  CB       -35.8920   80.4690   27.9490 C.3   131  ILE131      0.0252
     40  CG1      -35.1340   79.7210   29.0400 C.3   131  ILE131      0.0019
     41  CG2      -36.4270   81.7950   28.5300 C.3   131  ILE131      0.0019
     42  CD1      -33.9260   80.4790   29.5830 C.3   131  ILE131      0.0001
     43  N        -41.9670   74.6270   33.8800 N.3   152  ARG152     -0.1231
     44  CA       -40.7870   75.4130   33.5330 C.3   152  ARG152      0.1694
     45  C        -39.6700   74.4980   33.0590 C.2   152  ARG152      0.2592
     46  O        -39.6730   73.3020   33.3510 O.2   152  ARG152     -0.2718
     47  CB       -40.3210   76.2360   34.7430 C.3   152  ARG152      0.0321
     48  CG       -39.4380   75.4760   35.6950 C.3   152  ARG152      0.0489
     49  CD       -39.3110   76.1490   37.0650 C.3   152  ARG152      0.2205
     50  NE       -38.6390   77.4540   37.0960 N.pl3 152  ARG152     -0.0865
     51  CZ       -37.3520   77.6760   36.8090 C.cat 152  ARG152      0.5346
     52  NH1      -36.5470   76.6730   36.4360 N.pl3 152  ARG152      0.1354
     53  NH2      -36.8560   78.9070   36.9510 N.pl3 152  ARG152      0.1354
     54  N        -38.7120   75.0460   32.3200 N.am  153  ARG153     -0.1966
     55  CA       -37.6110   74.2040   31.8480 C.3   153  ARG153      0.1729
     56  C        -36.4430   74.2360   32.8130 C.2   153  ARG153      0.2616
     57  O        -36.2300   75.2120   33.5270 O.2   153  ARG153     -0.2715
     58  CB       -37.1450   74.6560   30.4690 C.3   153  ARG153      0.0348
     59  CG       -38.2660   75.2640   29.6740 C.3   153  ARG153      0.0492
     60  CD       -38.0150   75.2480   28.1970 C.3   153  ARG153      0.2205
     61  NE       -38.1790   73.9060   27.6460 N.pl3 153  ARG153     -0.0865
     62  CZ       -38.8510   73.6550   26.5280 C.cat 153  ARG153      0.5346
     63  NH1      -39.4230   74.6590   25.8570 N.pl3 153  ARG153      0.1354
     64  NH2      -38.9340   72.4140   26.0750 N.pl3 153  ARG153      0.1354
     65  N        -35.7000   73.1450   32.8420 N.am  154  GLU154     -0.1964
     66  CA       -34.5240   73.0360   33.6800 C.3   154  GLU154      0.1718
     67  C        -33.4260   72.3740   32.8670 C.2   154  GLU154      0.2458
     68  O        -33.6970   71.5710   31.9800 O.2   154  GLU154     -0.2730
     69  CB       -34.7710   72.1580   34.9120 C.3   154  GLU154      0.0428
     70  CG       -35.5390   72.8060   36.0270 C.3   154  GLU154      0.1163
     71  CD       -35.2530   72.1560   37.3740 C.2   154  GLU154      0.3649
     72  OE1      -34.5960   71.0750   37.4260 O.co2 154  GLU154     -0.2457
     73  OE2      -35.6890   72.7440   38.3880 O.co2 154  GLU154     -0.2457
     74  N        -32.1610   72.7210   33.1530 N.am  155  PRO155     -0.2727
     75  CA       -31.1180   72.0620   32.3760 C.3   155  PRO155      0.1402
     76  C        -31.1090   70.6190   32.8240 C.2   155  PRO155      0.2269
     77  O        -31.4970   70.3120   33.9470 O.2   155  PRO155     -0.2865
     78  CB       -29.8300   72.8060   32.7840 C.3   155  PRO155      0.0296
     79  CG       -30.1590   73.3840   34.1560 C.3   155  PRO155      0.0237
     80  CD       -31.6190   73.8020   34.0030 C.3   155  PRO155      0.0939
     81  N        -28.7900   77.3550   28.6080 N.3   182  TYR182     -0.1241
     82  CA       -29.8830   76.8940   29.4840 C.3   182  TYR182      0.1605
     83  C        -29.4070   76.3480   30.8350 C.2   182  TYR182      0.2264
     84  O        -30.2170   75.8790   31.6430 O.2   182  TYR182     -0.2867
     85  CB       -30.7560   75.8460   28.7610 C.3   182  TYR182      0.0534
     86  CG       -31.3680   76.3820   27.4840 C.ar  182  TYR182     -0.0201
     87  CD1      -32.2270   77.4700   27.5110 C.ar  182  TYR182     -0.0009
     88  CD2      -31.0430   75.8350   26.2430 C.ar  182  TYR182     -0.0009
     89  CE1      -32.7480   78.0070   26.3380 C.ar  182  TYR182      0.0417
     90  CE2      -31.5560   76.3690   25.0630 C.ar  182  TYR182      0.0417
     91  CZ       -32.4050   77.4540   25.1140 C.ar  182  TYR182      0.1957
     92  OH       -32.8910   78.0160   23.9360 O.3   182  TYR182     -0.2866
     93  N        -32.7720   70.2990   27.7540 N.3   481  THR481     -0.1218
     94  CA       -33.5780   70.7980   28.8360 C.3   481  THR481      0.1862
     95  C        -34.6890   69.7720   29.1600 C.2   481  THR481      0.2287
     96  O        -35.0670   68.9710   28.3050 O.2   481  THR481     -0.2866
     97  CB       -34.1080   72.1630   28.3410 C.3   481  THR481      0.1770
     98  OG1      -33.4240   73.2280   29.0210 O.3   481  THR481     -0.2211
     99  CG2      -35.5600   72.2730   28.4490 C.3   481  THR481      0.0375
@<TRIPOS>BOND
     1    92    91    1
     2    90    91   ar
     3    90    88   ar
     4    91    89   ar
     5    63    62    1
     6    35    36    1
     7    64    62    1
     8    88    86   ar
     9    89    87   ar
    10    62    61    2
    11    36    39    1
    12    36    37    1
    13    86    87   ar
    14    86    85    1
    15    61    60    1
    16    93    94    1
    17    39    41    1
    18    39    40    1
    19    60    59    1
    20    96    95    2
    21    97    99    1
    22    97    94    1
    23    97    98    1
    24    37    38    2
    25    27    26    2
    26    81    82    1
    27    85    82    1
    28    94    95    1
    29    40    42    1
    30    26    25    1
    31    82    83    1
    32    59    58    1
    33    58    55    1
    34    28    25    1
    35    28    29    1
    36    25    24    1
    37    83    84    2
    38    23    22    2
    39    30    29    1
    40    30    31    1
    41    55    54    1
    42    55    56    1
    43    68    67    2
    44    22    21    1
    45    33    32    1
    46    54    45   am
    47    75    78    1
    48    75    76    1
    49    75    74    1
    50    21    20    1
    51    78    79    1
    52    56    65   am
    53    56    57    2
    54    76    77    2
    55    65    66    1
    56    67    74   am
    57    67    66    1
    58    31    32    2
    59    45    46    2
    60    45    44    1
    61    74    80    1
    62    32    34    1
    63    44    43    1
    64    44    47    1
    65    66    69    1
    66    80    79    1
    67    47    48    1
    68    69    70    1
    69    48    49    1
    70    70    71    1
    71     1     2    1
    72    52    51    1
    73     2     5    1
    74     2     3    1
    75    51    53    1
    76    51    50    2
    77    49    50    1
    78     5     6    1
    79     4     3    2
    80    71    72   ar
    81    71    73   ar
    82     3    12   am
    83     6     7    1
    84     7     8    1
    85    12    13    1
    86     8     9    2
    87    14    13    1
    88    14    15    2
    89     9    10    1
    90     9    11    1
    91    13    16    1
    92    16    17    1
    93    18    17   ar
    94    17    19   ar
