@<TRIPOS>MOLECULE
tmp/1uxuA00.pdb
 218 212 0 0 0
SMALL
GASTEIGER

@<TRIPOS>ATOM
      1  N        -20.8050   65.3050   20.5480 N.3   162  ILE162     -0.1231
      2  CA       -19.9130   64.5340   19.7050 C.3   162  ILE162      0.1692
      3  C        -19.9360   65.1920   18.3460 C.2   162  ILE162      0.2593
      4  O        -20.9870   65.3890   17.7330 O.2   162  ILE162     -0.2718
      5  CB       -20.3350   63.0920   19.6370 C.3   162  ILE162      0.0266
      6  CG1      -20.1930   62.4810   21.0340 C.3   162  ILE162      0.0019
      7  CG2      -19.4930   62.3570   18.6090 C.3   162  ILE162      0.0020
      8  CD1      -20.6030   61.0290   21.1250 C.3   162  ILE162      0.0001
      9  N        -18.7460   65.5380   17.8870 N.am  163  THR163     -0.1940
     10  CA       -18.5770   66.2860   16.6670 C.3   163  THR163      0.2013
     11  C        -17.9450   65.5570   15.4880 C.2   163  THR163      0.2484
     12  O        -17.0610   64.7130   15.6560 O.2   163  THR163     -0.2729
     13  CB       -17.8020   67.5650   17.0580 C.3   163  THR163      0.1807
     14  OG1      -18.7570   68.6050   17.3040 O.3   163  THR163     -0.2208
     15  CG2      -16.7820   67.9650   16.0250 C.3   163  THR163      0.0379
     16  N        -18.3930   65.8870   14.2720 N.am  164  PRO164     -0.2715
     17  CA       -17.9210   65.3030   13.0210 C.3   164  PRO164      0.1536
     18  C        -16.6830   66.0720   12.5010 C.2   164  PRO164      0.2599
     19  O        -16.2940   67.0980   13.0750 O.2   164  PRO164     -0.2715
     20  CB       -19.1240   65.4830   12.1220 C.3   164  PRO164      0.0310
     21  CG       -19.5390   66.8880   12.4760 C.3   164  PRO164      0.0237
     22  CD       -19.3690   66.9580   13.9970 C.3   164  PRO164      0.0939
     23  N        -16.1090   65.6080   11.3910 N.am  165  PHE165     -0.1960
     24  CA       -14.9180   66.2530   10.8280 C.3   165  PHE165      0.1771
     25  C        -15.1780   67.4380    9.9000 C.2   165  PHE165      0.2619
     26  O        -14.3000   68.2890    9.7310 O.2   165  PHE165     -0.2715
     27  CB       -14.0680   65.2260   10.0640 C.3   165  PHE165      0.0574
     28  CG       -14.5220   64.9860    8.6450 C.ar  165  PHE165     -0.0200
     29  CD1      -14.2380   65.9010    7.6450 C.ar  165  PHE165     -0.0042
     30  CD2      -15.2460   63.8410    8.3110 C.ar  165  PHE165     -0.0042
     31  CE1      -14.6630   65.6870    6.3350 C.ar  165  PHE165     -0.0003
     32  CE2      -15.6750   63.6170    6.9980 C.ar  165  PHE165     -0.0003
     33  CZ       -15.3860   64.5350    6.0110 C.ar  165  PHE165     -0.0000
     34  N        -16.3660   67.5160    9.3030 N.am  166  ASN166     -0.1972
     35  CA       -16.6100   68.5880    8.3500 C.3   166  ASN166      0.1688
     36  C        -16.8220   70.0170    8.8590 C.2   166  ASN166      0.2292
     37  O        -16.7450   70.9730    8.0740 O.2   166  ASN166     -0.2864
     38  CB       -17.7280   68.1720    7.3890 C.3   166  ASN166      0.1181
     39  CG       -18.9900   67.7520    8.1010 C.2   166  ASN166      0.2629
     40  OD1      -18.9630   66.9480    9.0340 O.2   166  ASN166     -0.2716
     41  ND2      -20.1160   68.2850    7.6470 N.am  166  ASN166     -0.0877
     42  N        -16.4130   66.0240   22.3790 N.3   189  LYS189     -0.1231
     43  CA       -15.6120   64.9180   21.8690 C.3   189  LYS189      0.1678
     44  C        -15.5390   65.1720   20.3710 C.2   189  LYS189      0.2434
     45  O        -16.4170   64.7520   19.6120 O.2   189  LYS189     -0.2733
     46  CB       -16.3050   63.5830   22.1410 C.3   189  LYS189      0.0284
     47  CG       -15.3740   62.3960   22.2910 C.3   189  LYS189      0.0035
     48  CD       -14.4620   62.1980   21.0860 C.3   189  LYS189      0.0206
     49  CE       -15.2040   61.7340   19.8530 C.3   189  LYS189      0.1093
     50  NZ       -14.2330   61.3880   18.7530 N.3   189  LYS189     -0.1314
     51  N        -14.4890   65.8770   19.9230 N.am  190  PRO190     -0.2718
     52  CA       -14.3350   66.1810   18.5030 C.3   190  PRO190      0.1535
     53  C        -13.8040   64.9850   17.7470 C.2   190  PRO190      0.2599
     54  O        -13.3100   64.0330   18.3520 O.2   190  PRO190     -0.2715
     55  CB       -13.3400   67.3260   18.5210 C.3   190  PRO190      0.0310
     56  CG       -12.3770   66.8450   19.5580 C.3   190  PRO190      0.0237
     57  CD       -13.3210   66.3700   20.6800 C.3   190  PRO190      0.0939
     58  N        -13.9360   65.0400   16.4240 N.am  191  SER191     -0.1936
     59  CA       -13.4420   64.0050   15.5370 C.3   191  SER191      0.2055
     60  C        -11.9230   64.0010   15.7440 C.2   191  SER191      0.2643
     61  O        -11.2870   65.0610   15.7530 O.2   191  SER191     -0.2714
     62  CB       -13.7620   64.3960   14.0990 C.3   191  SER191      0.2130
     63  OG       -13.0890   63.5720   13.1630 O.3   191  SER191     -0.2179
     64  N        -11.3480   62.8220   15.9180 N.am  192  ILE192     -0.1963
     65  CA        -9.9180   62.7220   16.1330 C.3   192  ILE192      0.1727
     66  C         -9.1760   63.0290   14.8310 C.2   192  ILE192      0.2616
     67  O         -7.9570   63.0820   14.7950 O.2   192  ILE192     -0.2715
     68  CB        -9.5480   61.3150   16.6350 C.3   192  ILE192      0.0290
     69  CG1       -8.5080   61.4350   17.7440 C.3   192  ILE192      0.0022
     70  CG2       -9.0390   60.4510   15.4830 C.3   192  ILE192      0.0023
     71  CD1       -9.0400   62.1840   18.9670 C.3   192  ILE192      0.0001
     72  N         -9.9400   63.2380   13.7670 N.am  193  SER193     -0.1950
     73  CA        -9.4010   63.5460   12.4570 C.3   193  SER193      0.1924
     74  C         -8.9270   65.0130   12.4000 C.2   193  SER193      0.2314
     75  O         -7.9390   65.3420   11.7290 O.2   193  SER193     -0.2863
     76  CB       -10.4880   63.2950   11.4170 C.3   193  SER193      0.2116
     77  OG        -9.9720   63.3500   10.1080 O.3   193  SER193     -0.2180
     78  N        -10.5400   58.5020   20.5990 N.3   221  PRO221     -0.2102
     79  CA       -10.7900   58.0220   19.2420 C.3   221  PRO221      0.1504
     80  C        -11.9940   57.0900   19.1880 C.2   221  PRO221      0.2576
     81  O        -12.2030   56.2840   20.0890 O.2   221  PRO221     -0.2718
     82  CB        -9.4860   57.3220   18.8910 C.3   221  PRO221      0.0282
     83  CG        -9.1090   56.6980   20.1910 C.3   221  PRO221      0.0208
     84  CD        -9.4020   57.7950   21.2100 C.3   221  PRO221      0.0893
     85  N        -12.7830   57.2310   18.1280 N.am  222  GLY222     -0.1943
     86  CA       -13.9620   56.4080   17.9080 C.3   222  GLY222      0.2014
     87  C        -14.6580   55.7060   19.0630 C.2   222  GLY222      0.2638
     88  O        -15.3510   56.3490   19.8550 O.2   222  GLY222     -0.2714
     89  N        -14.4770   54.3870   19.1630 N.am  223  LYS223     -0.1977
     90  CA       -15.1470   53.6040   20.1970 C.3   223  LYS223      0.1596
     91  C        -14.7240   53.8840   21.6320 C.2   223  LYS223      0.2287
     92  O        -15.3470   53.3890   22.5730 O.2   223  LYS223     -0.2864
     93  CB       -15.0330   52.1030   19.8950 C.3   223  LYS223      0.0298
     94  CG       -13.7320   51.4350   20.3020 C.3   223  LYS223      0.0038
     95  CD       -13.7890   49.9380   19.9680 C.3   223  LYS223      0.0206
     96  CE       -12.6780   49.1450   20.6590 C.3   223  LYS223      0.1093
     97  NZ       -11.3120   49.6380   20.3050 N.3   223  LYS223     -0.1314
     98  N        -14.8830   56.7700   22.8790 N.3   225  ALA225     -0.1231
     99  CA       -15.8790   57.7410   23.3110 C.3   225  ALA225      0.1694
    100  C        -17.1570   57.0720   23.8490 C.2   225  ALA225      0.2591
    101  O        -17.9920   57.7280   24.4760 O.2   225  ALA225     -0.2718
    102  CB       -16.2200   58.6680   22.1590 C.3   225  ALA225      0.0304
    103  N        -17.3000   55.7700   23.6070 N.am  226  GLU226     -0.1979
    104  CA       -18.4640   55.0330   24.0790 C.3   226  GLU226      0.1602
    105  C        -18.5690   55.0830   25.6030 C.2   226  GLU226      0.2287
    106  O        -19.6720   55.0550   26.1560 O.2   226  GLU226     -0.2864
    107  CB       -18.4180   53.5820   23.5730 C.3   226  GLU226      0.0415
    108  CG       -18.7300   53.4850   22.0770 C.3   226  GLU226      0.1163
    109  CD       -18.7960   52.0610   21.5370 C.2   226  GLU226      0.3649
    110  OE1      -18.7970   51.0950   22.3380 O.co2 226  GLU226     -0.2457
    111  OE2      -18.8620   51.9130   20.2940 O.co2 226  GLU226     -0.2457
    112  N        -20.6670   58.2240   26.2690 N.3   229  VAL229     -0.1245
    113  CA       -22.0490   58.0650   25.8720 C.3   229  VAL229      0.1561
    114  C        -22.8390   57.1420   26.8170 C.2   229  VAL229      0.2260
    115  O        -23.9510   57.4670   27.2220 O.2   229  VAL229     -0.2867
    116  CB       -22.1120   57.4950   24.4520 C.3   229  VAL229      0.0252
    117  CG1      -23.5560   57.1390   24.0920 C.3   229  VAL229      0.0019
    118  CG2      -21.5260   58.4950   23.4800 C.3   229  VAL229      0.0019
    119  N        -25.2610   64.6500   18.7530 N.3   239  PHE239     -0.1227
    120  CA       -24.3990   64.0100   17.7760 C.3   239  PHE239      0.1736
    121  C        -24.6740   64.4230   16.3440 C.2   239  PHE239      0.2596
    122  O        -25.8380   64.5420   15.9160 O.2   239  PHE239     -0.2718
    123  CB       -24.5780   62.4940   17.9130 C.3   239  PHE239      0.0547
    124  CG       -23.7760   61.6750   16.9340 C.ar  239  PHE239     -0.0202
    125  CD1      -24.2370   61.4630   15.6360 C.ar  239  PHE239     -0.0042
    126  CD2      -22.5580   61.0900   17.3260 C.ar  239  PHE239     -0.0042
    127  CE1      -23.5110   60.6780   14.7320 C.ar  239  PHE239     -0.0003
    128  CE2      -21.8120   60.3020   16.4370 C.ar  239  PHE239     -0.0003
    129  CZ       -22.2900   60.0910   15.1320 C.ar  239  PHE239     -0.0000
    130  N        -23.5970   64.7000   15.6200 N.am  240  THR240     -0.1939
    131  CA       -23.6790   65.0000   14.2020 C.3   240  THR240      0.2028
    132  C        -22.5990   64.0820   13.6770 C.2   240  THR240      0.2643
    133  O        -21.4330   64.1900   14.0750 O.2   240  THR240     -0.2714
    134  CB       -23.3390   66.4380   13.8350 C.3   240  THR240      0.1808
    135  OG1      -24.2970   67.3260   14.4150 O.3   240  THR240     -0.2208
    136  CG2      -23.4040   66.6080   12.3150 C.3   240  THR240      0.0379
    137  N        -23.0100   63.1520   12.8270 N.am  241  GLY241     -0.1939
    138  CA       -22.1120   62.1640   12.2620 C.3   241  GLY241      0.2014
    139  C        -22.8510   61.2950   11.2480 C.2   241  GLY241      0.2639
    140  O        -23.9010   61.6840   10.7220 O.2   241  GLY241     -0.2714
    141  N        -22.2990   60.1220   10.9590 N.am  242  SER242     -0.1949
    142  CA       -22.9040   59.2180   10.0010 C.3   242  SER242      0.1924
    143  C        -24.0370   58.4010   10.6310 C.2   242  SER242      0.2314
    144  O        -24.0820   58.1770   11.8450 O.2   242  SER242     -0.2863
    145  CB       -21.8470   58.2650    9.4680 C.3   242  SER242      0.2116
    146  OG       -21.3640   57.4860   10.5400 O.3   242  SER242     -0.2180
    147  N        -22.7420   55.3820   12.8050 N.3   245  VAL245     -0.1245
    148  CA       -22.2030   55.6530   14.1380 C.3   245  VAL245      0.1561
    149  C        -23.3260   56.1500   15.0500 C.2   245  VAL245      0.2260
    150  O        -23.3770   55.8180   16.2300 O.2   245  VAL245     -0.2867
    151  CB       -21.0570   56.6870   14.0940 C.3   245  VAL245      0.0252
    152  CG1      -20.5780   56.9930   15.5210 C.3   245  VAL245      0.0019
    153  CG2      -19.8910   56.1270   13.2570 C.3   245  VAL245      0.0019
    154  N        -25.0340   53.2790   16.5440 N.3   248  ARG248     -0.1231
    155  CA       -24.2090   52.7100   17.6020 C.3   248  ARG248      0.1694
    156  C        -24.2880   53.5670   18.8660 C.2   248  ARG248      0.2591
    157  O        -24.3440   53.0440   19.9800 O.2   248  ARG248     -0.2718
    158  CB       -22.7520   52.6060   17.1330 C.3   248  ARG248      0.0321
    159  CG       -21.7830   52.1570   18.2150 C.3   248  ARG248      0.0489
    160  CD       -22.0810   50.7480   18.6870 C.3   248  ARG248      0.2205
    161  NE       -21.1530   50.3240   19.7340 N.pl3 248  ARG248     -0.0865
    162  CZ       -21.2580   49.1910   20.4270 C.cat 248  ARG248      0.5346
    163  NH1      -22.2630   48.3430   20.1930 N.pl3 248  ARG248      0.1354
    164  NH2      -20.3550   48.9070   21.3630 N.pl3 248  ARG248      0.1354
    165  N        -24.2940   54.8850   18.6930 N.am  249  VAL249     -0.1980
    166  CA       -24.3540   55.7860   19.8400 C.3   249  VAL249      0.1595
    167  C        -25.6180   55.5650   20.6810 C.2   249  VAL249      0.2287
    168  O        -25.5500   55.4500   21.9150 O.2   249  VAL249     -0.2864
    169  CB       -24.2700   57.2610   19.3750 C.3   249  VAL249      0.0276
    170  CG1      -24.6280   58.2120   20.5180 C.3   249  VAL249      0.0022
    171  CG2      -22.8540   57.5510   18.8780 C.3   249  VAL249      0.0022
    172  N        -28.1080   64.4130   14.0420 N.3   261  GLU261     -0.1231
    173  CA       -28.0920   65.0200   12.7100 C.3   261  GLU261      0.1699
    174  C        -27.2060   64.0160   11.9810 C.2   261  GLU261      0.2592
    175  O        -25.9730   64.0290   12.1400 O.2   261  GLU261     -0.2718
    176  CB       -27.4260   66.3870   12.7650 C.3   261  GLU261      0.0402
    177  CG       -28.1880   67.4120   13.5350 C.3   261  GLU261      0.1161
    178  CD       -29.2920   68.0220   12.7100 C.2   261  GLU261      0.3649
    179  OE1      -29.3060   67.7460   11.4810 O.co2 261  GLU261     -0.2457
    180  OE2      -30.1340   68.7850   13.2730 O.co2 261  GLU261     -0.2457
    181  N        -27.8370   63.1330   11.2060 N.am  262  LEU262     -0.1966
    182  CA       -27.1340   62.0660   10.5040 C.3   262  LEU262      0.1728
    183  C        -26.9110   62.2630    9.0200 C.2   262  LEU262      0.2616
    184  O        -26.5740   61.3160    8.3140 O.2   262  LEU262     -0.2715
    185  CB       -27.8640   60.7470   10.7320 C.3   262  LEU262      0.0311
    186  CG       -28.0850   60.4370   12.2090 C.3   262  LEU262      0.0022
    187  CD1      -28.8590   59.1230   12.3890 C.3   262  LEU262      0.0001
    188  CD2      -26.7150   60.3480   12.8830 C.3   262  LEU262      0.0001
    189  N        -27.1170   63.4770    8.5400 N.am  263  GLY263     -0.1955
    190  CA       -26.8740   63.7580    7.1370 C.3   263  GLY263      0.1869
    191  C        -27.4830   62.8620    6.0630 C.2   263  GLY263      0.2309
    192  O        -28.6730   62.5410    6.0970 O.2   263  GLY263     -0.2863
    193  N        -23.3630   67.5620    5.1540 N.3   295  CYS295     -0.1235
    194  CA       -24.5310   66.7390    5.4540 C.3   295  CYS295      0.1677
    195  C        -25.6270   67.0320    4.4270 C.2   295  CYS295      0.2270
    196  O        -26.3190   66.1180    4.0050 O.2   295  CYS295     -0.2867
    197  CB       -25.0600   67.0550    6.8480 C.3   295  CYS295      0.0956
    198  SG       -25.6210   68.7620    6.9090 S.3   295  CYS295     -0.0801
    199  N        -24.9380   57.2800    0.5720 N.3   393  GLU393     -0.1245
    200  CA       -24.3920   58.6240    0.5810 C.3   393  GLU393      0.1567
    201  C        -22.8880   58.4700    0.3530 C.2   393  GLU393      0.2260
    202  O        -22.1810   57.8860    1.1760 O.2   393  GLU393     -0.2867
    203  CB       -24.6150   59.3260    1.9230 C.3   393  GLU393      0.0388
    204  CG       -24.0520   60.7520    1.9390 C.3   393  GLU393      0.1160
    205  CD       -23.7480   61.2660    3.3420 C.2   393  GLU393      0.3649
    206  OE1      -23.0670   60.5560    4.1100 O.co2 393  GLU393     -0.2457
    207  OE2      -24.1750   62.3890    3.6680 O.co2 393  GLU393     -0.2457
    208  N        -19.8960   60.3930    0.4610 N.3   395  PHE395     -0.1241
    209  CA       -19.4270   61.6840    0.9680 C.3   395  PHE395      0.1605
    210  C        -18.2850   62.2040    0.1050 C.2   395  PHE395      0.2264
    211  O        -17.1060   61.9330    0.3520 O.2   395  PHE395     -0.2867
    212  CB       -19.0220   61.5620    2.4480 C.3   395  PHE395      0.0534
    213  CG       -19.4410   62.7520    3.2780 C.ar  395  PHE395     -0.0203
    214  CD1      -20.7460   63.2510    3.1880 C.ar  395  PHE395     -0.0042
    215  CD2      -18.5350   63.4020    4.1120 C.ar  395  PHE395     -0.0042
    216  CE1      -21.1390   64.3850    3.9160 C.ar  395  PHE395     -0.0003
    217  CE2      -18.9190   64.5420    4.8490 C.ar  395  PHE395     -0.0003
    218  CZ       -20.2230   65.0330    4.7500 C.ar  395  PHE395     -0.0000
@<TRIPOS>BOND
     1   210   211    2
     2   210   209    1
     3   201   200    1
     4   201   202    2
     5   208   209    1
     6   199   200    1
     7   200   203    1
     8   209   212    1
     9   203   204    1
    10   204   205    1
    11   212   213    1
    12   214   213   ar
    13   214   216   ar
    14   213   215   ar
    15   205   207   ar
    16   205   206   ar
    17   216   218   ar
    18   196   195    2
    19   215   217   ar
    20   195   194    1
    21   218   217   ar
    22   193   194    1
    23   194   197    1
    24    33    31   ar
    25    33    32   ar
    26   191   192    2
    27   191   190    1
    28    31    29   ar
    29   197   198    1
    30    32    30   ar
    31   190   189    1
    32    38    39    1
    33    38    35    1
    34    29    28   ar
    35    41    39   am
    36    37    36    2
    37    39    40    2
    38    30    28   ar
    39   184   183    2
    40    35    36    1
    41    35    34    1
    42   189   183   am
    43    28    27    1
    44   183   182    1
    45    34    25   am
    46   145   142    1
    47   145   146    1
    48    26    25    2
    49    25    24    1
    50   142   143    1
    51   142   141    1
    52    27    24    1
    53    77    76    1
    54   182   185    1
    55   182   181    1
    56   143   144    2
    57   140   139    2
    58   185   186    1
    59    24    23    1
    60   141   139   am
    61   181   174   am
    62   139   138    1
    63    23    18   am
    64    76    73    1
    65   179   178   ar
    66    75    74    2
    67   174   175    2
    68   174   173    1
    69    20    21    1
    70    20    17    1
    71   186   187    1
    72   186   188    1
    73   138   137    1
    74   136   134    1
    75    74    73    1
    76    73    72    1
    77    21    22    1
    78    18    17    1
    79    18    19    2
    80   178   180   ar
    81   178   177    1
    82   173   176    1
    83   173   172    1
    84   176   177    1
    85   147   148    1
    86   137   132   am
    87    17    16    1
    88    63    62    1
    89   153   151    1
    90   132   133    2
    91   132   131    1
    92    72    66   am
    93   134   131    1
    94   134   135    1
    95    22    16    1
    96   151   148    1
    97   151   152    1
    98    62    59    1
    99   148   149    1
   100   131   130    1
   101    16    11   am
   102   127   129   ar
   103   127   125   ar
   104    67    66    2
   105    66    65    1
   106   149   150    2
   107   129   128   ar
   108    70    68    1
   109    11    12    2
   110    11    10    1
   111    59    60    1
   112    59    58    1
   113   130   121   am
   114   125   124   ar
   115    60    61    2
   116    60    64   am
   117   122   121    2
   118    64    65    1
   119    15    13    1
   120    65    68    1
   121   121   120    1
   122    58    53   am
   123   128   126   ar
   124   154   155    1
   125    68    69    1
   126    10    13    1
   127    10     9    1
   128   124   126   ar
   129   124   123    1
   130    13    14    1
   131   158   155    1
   132   158   159    1
   133   155   156    1
   134     4     3    2
   135    69    71    1
   136    53    54    2
   137    53    52    1
   138   120   123    1
   139   120   119    1
   140     9     3   am
   141    86    85    1
   142    86    87    1
   143    85    80   am
   144   159   160    1
   145     3     2    1
   146    52    55    1
   147    52    51    1
   148    55    56    1
   149     7     5    1
   150   160   161    1
   151   165   156   am
   152   165   166    1
   153    50    49    1
   154   156   157    2
   155   171   169    1
   156    82    79    1
   157    82    83    1
   158    87    89   am
   159    87    88    2
   160    89    90    1
   161    80    79    1
   162    80    81    2
   163    79    78    1
   164   169   166    1
   165   169   170    1
   166    56    57    1
   167    45    44    2
   168     5     2    1
   169     5     6    1
   170     2     1    1
   171   161   162    2
   172   166   167    1
   173    49    48    1
   174    93    90    1
   175    93    94    1
   176    51    44   am
   177    51    57    1
   178    95    94    1
   179    95    96    1
   180    83    84    1
   181   163   162    1
   182    90    91    1
   183   111   109   ar
   184    97    96    1
   185    44    43    1
   186   162   164    1
   187    78    84    1
   188   167   168    2
   189     6     8    1
   190    48    47    1
   191   109   108    1
   192   109   110   ar
   193    91    92    2
   194    43    46    1
   195    43    42    1
   196   108   107    1
   197    46    47    1
   198   102    99    1
   199    98    99    1
   200    99   100    1
   201   118   116    1
   202   107   104    1
   203   103   100   am
   204   103   104    1
   205   100   101    2
   206   104   105    1
   207   117   116    1
   208   116   113    1
   209   105   106    2
   210   113   112    1
   211   113   114    1
   212   114   115    2
