@<TRIPOS>MOLECULE
tmp/1uxuA02.pdb
 96 93 0 0 0
SMALL
GASTEIGER

@<TRIPOS>ATOM
      1  N        -16.3660   67.5160    9.3030 N.3   166  ASN166     -0.1225
      2  CA       -16.6100   68.5880    8.3500 C.3   166  ASN166      0.1785
      3  C        -16.8220   70.0170    8.8590 C.2   166  ASN166      0.2597
      4  O        -16.7450   70.9730    8.0740 O.2   166  ASN166     -0.2718
      5  CB       -17.7280   68.1720    7.3890 C.3   166  ASN166      0.1169
      6  CG       -18.9900   67.7520    8.1010 C.2   166  ASN166      0.2627
      7  OD1      -18.9630   66.9480    9.0340 O.2   166  ASN166     -0.2716
      8  ND2      -20.1160   68.2850    7.6470 N.am  166  ASN166     -0.0877
      9  N        -17.1070   70.1850   10.1460 N.am  167  TYR167     -0.1976
     10  CA       -17.2390   71.5440   10.7210 C.3   167  TYR167      0.1639
     11  C        -16.6470   71.4430   12.1140 C.2   167  TYR167      0.2290
     12  O        -17.3400   71.6350   13.1220 O.2   167  TYR167     -0.2864
     13  CB       -18.6960   72.0070   10.7970 C.3   167  TYR167      0.0560
     14  CG       -19.2370   72.4430    9.4650 C.ar  167  TYR167     -0.0198
     15  CD1      -19.7310   71.5070    8.5560 C.ar  167  TYR167     -0.0009
     16  CD2      -19.2180   73.7920    9.0910 C.ar  167  TYR167     -0.0009
     17  CE1      -20.1920   71.8990    7.3040 C.ar  167  TYR167      0.0417
     18  CE2      -19.6820   74.1970    7.8390 C.ar  167  TYR167      0.0417
     19  CZ       -20.1670   73.2400    6.9490 C.ar  167  TYR167      0.1957
     20  OH       -20.6270   73.6090    5.7020 O.3   167  TYR167     -0.2866
     21  N        -19.3820   73.2990   14.7050 N.3   171  ASP171     -0.1239
     22  CA       -20.1530   72.3110   15.4670 C.3   171  ASP171      0.1674
     23  C        -19.8560   72.2660   16.9470 C.2   171  ASP171      0.2266
     24  O        -20.7590   72.0410   17.7550 O.2   171  ASP171     -0.2867
     25  CB       -19.9750   70.9070   14.9000 C.3   171  ASP171      0.1410
     26  CG       -20.8300   70.6720   13.6810 C.2   171  ASP171      0.3668
     27  OD1      -21.7010   71.5380   13.3940 O.co2 171  ASP171     -0.2456
     28  OD2      -20.6400   69.6260   13.0190 O.co2 171  ASP171     -0.2456
     29  N        -23.5970   64.7000   15.6200 N.3   240  THR240     -0.1218
     30  CA       -23.6790   65.0000   14.2020 C.3   240  THR240      0.1862
     31  C        -22.5990   64.0820   13.6770 C.2   240  THR240      0.2287
     32  O        -21.4330   64.1900   14.0750 O.2   240  THR240     -0.2866
     33  CB       -23.3390   66.4380   13.8350 C.3   240  THR240      0.1770
     34  OG1      -24.2970   67.3260   14.4150 O.3   240  THR240     -0.2211
     35  CG2      -23.4040   66.6080   12.3150 C.3   240  THR240      0.0375
     36  N        -20.6330   67.9130    2.9790 N.3   294  ARG294     -0.1231
     37  CA       -21.6530   68.5880    3.7640 C.3   294  ARG294      0.1694
     38  C        -22.8750   67.6730    3.9210 C.2   294  ARG294      0.2592
     39  O        -23.3570   67.0780    2.9380 O.2   294  ARG294     -0.2718
     40  CB       -22.0880   69.8660    3.0660 C.3   294  ARG294      0.0321
     41  CG       -21.0560   70.9600    3.0680 C.3   294  ARG294      0.0489
     42  CD       -21.4590   72.0270    2.0940 C.3   294  ARG294      0.2205
     43  NE       -22.6470   72.7530    2.5280 N.pl3 294  ARG294     -0.0865
     44  CZ       -23.7430   72.8920    1.7920 C.cat 294  ARG294      0.5346
     45  NH1      -23.8110   72.3330    0.5800 N.pl3 294  ARG294      0.1354
     46  NH2      -24.7520   73.6210    2.2450 N.pl3 294  ARG294      0.1354
     47  N        -23.3630   67.5620    5.1540 N.am  295  CYS295     -0.1956
     48  CA       -24.5310   66.7390    5.4540 C.3   295  CYS295      0.1843
     49  C        -25.6270   67.0320    4.4270 C.2   295  CYS295      0.2625
     50  O        -26.3190   66.1180    4.0050 O.2   295  CYS295     -0.2714
     51  CB       -25.0600   67.0550    6.8480 C.3   295  CYS295      0.0997
     52  SG       -25.6210   68.7620    6.9090 S.3   295  CYS295     -0.0797
     53  N        -25.7550   68.2960    4.0200 N.am  296  ASP296     -0.1971
     54  CA       -26.7640   68.6900    3.0460 C.3   296  ASP296      0.1709
     55  C        -26.2770   68.9090    1.5980 C.2   296  ASP296      0.2293
     56  O        -26.8500   69.7100    0.8610 O.2   296  ASP296     -0.2864
     57  CB       -27.5090   69.9470    3.5300 C.3   296  ASP296      0.1436
     58  CG       -26.5750   71.1110    3.8830 C.2   296  ASP296      0.3671
     59  OD1      -25.3540   71.0460    3.5800 O.co2 296  ASP296     -0.2456
     60  OD2      -27.0790   72.1030    4.4650 O.co2 296  ASP296     -0.2456
     61  N        -28.9690   75.2000    2.8480 N.3   452  ARG452     -0.1231
     62  CA       -27.8390   75.7460    3.6060 C.3   452  ARG452      0.1694
     63  C        -28.2610   76.0260    5.0650 C.2   452  ARG452      0.2592
     64  O        -29.1260   76.8750    5.3470 O.2   452  ARG452     -0.2718
     65  CB       -27.2910   77.0290    2.9400 C.3   452  ARG452      0.0321
     66  CG       -25.8070   77.2820    3.3390 C.3   452  ARG452      0.0489
     67  CD       -25.1540   78.4850    2.6440 C.3   452  ARG452      0.2205
     68  NE       -25.3940   79.7410    3.3490 N.pl3 452  ARG452     -0.0865
     69  CZ       -26.4330   80.5350    3.1220 C.cat 452  ARG452      0.5346
     70  NH1      -27.3470   80.2030    2.1930 N.pl3 452  ARG452      0.1354
     71  NH2      -26.5580   81.6590    3.8200 N.pl3 452  ARG452      0.1354
     72  N        -27.6450   75.2990    5.9890 N.am  453  HIS453     -0.1962
     73  CA       -27.9720   75.4350    7.3950 C.3   453  HIS453      0.1787
     74  C        -27.4410   76.7190    8.0530 C.2   453  HIS453      0.2620
     75  O        -28.0860   77.2730    8.9450 O.2   453  HIS453     -0.2715
     76  CB       -27.5120   74.1750    8.1120 C.3   453  HIS453      0.0785
     77  CG       -28.2460   72.9450    7.6620 C.ar  453  HIS453      0.0821
     78  ND1      -27.7490   71.6660    7.8310 N.ar  453  HIS453     -0.2267
     79  CD2      -29.4280   72.8080    7.0070 C.ar  453  HIS453      0.1154
     80  CE1      -28.5880   70.7970    7.2900 C.ar  453  HIS453      0.1986
     81  NE2      -29.6130   71.4640    6.7820 N.ar  453  HIS453     -0.2212
     82  N        -26.2870   77.2160    7.5970 N.am  454  GLY454     -0.1954
     83  CA       -25.7480   78.4420    8.1780 C.3   454  GLY454      0.1869
     84  C        -25.5970   78.3160    9.6770 C.2   454  GLY454      0.2309
     85  O        -25.1430   77.2940   10.1800 O.2   454  GLY454     -0.2863
     86  N        -33.3540   72.7160   11.5650 N.3   460  PHE460     -0.1241
     87  CA       -33.1430   71.7070   10.5410 C.3   460  PHE460      0.1605
     88  C        -32.7600   70.4100   11.2320 C.2   460  PHE460      0.2264
     89  O        -32.2280   70.4400   12.3440 O.2   460  PHE460     -0.2867
     90  CB       -32.0090   72.1350    9.5960 C.3   460  PHE460      0.0534
     91  CG       -30.6570   72.2200   10.2810 C.ar  460  PHE460     -0.0203
     92  CD1      -30.2360   73.4080   10.8720 C.ar  460  PHE460     -0.0042
     93  CD2      -29.8300   71.0970   10.3640 C.ar  460  PHE460     -0.0042
     94  CE1      -28.9960   73.4860   11.5410 C.ar  460  PHE460     -0.0003
     95  CE2      -28.5930   71.1600   11.0310 C.ar  460  PHE460     -0.0003
     96  CZ       -28.1760   72.3650   11.6190 C.ar  460  PHE460     -0.0000
@<TRIPOS>BOND
     1    45    44    1
     2    56    55    2
     3    55    54    1
     4    44    46    1
     5    44    43    2
     6    42    43    1
     7    42    41    1
     8    70    69    1
     9    67    66    1
    10    67    68    1
    11    61    62    1
    12    39    38    2
    13    65    66    1
    14    65    62    1
    15    36    37    1
    16    54    57    1
    17    54    53    1
    18    40    41    1
    19    40    37    1
    20    69    68    2
    21    69    71    1
    22    57    58    1
    23    59    58   ar
    24    62    63    1
    25    37    38    1
    26    58    60   ar
    27    38    47   am
    28    50    49    2
    29    53    49   am
    30    49    48    1
    31    63    64    2
    32    63    72   am
    33    47    48    1
    34    48    51    1
    35    20    19    1
    36    72    73    1
    37    81    79   ar
    38    81    80   ar
    39    51    52    1
    40    19    17   ar
    41    19    18   ar
    42    79    77   ar
    43    80    78   ar
    44    17    15   ar
    45     5     6    1
    46     5     2    1
    47    73    74    1
    48    73    76    1
    49    82    74   am
    50    82    83    1
    51     8     6   am
    52    77    78   ar
    53    77    76    1
    54    18    16   ar
    55    74    75    2
    56     4     3    2
    57     6     7    2
    58    83    84    1
    59     2     3    1
    60     2     1    1
    61    15    14   ar
    62     3     9   am
    63    16    14   ar
    64    14    13    1
    65    90    91    1
    66    90    87    1
    67    84    85    2
    68     9    10    1
    69    91    93   ar
    70    91    92   ar
    71    93    95   ar
    72    87    88    1
    73    87    86    1
    74    10    13    1
    75    10    11    1
    76    92    94   ar
    77    95    96   ar
    78    88    89    2
    79    94    96   ar
    80    11    12    2
    81    35    33    1
    82    28    26   ar
    83    27    26   ar
    84    31    32    2
    85    31    30    1
    86    26    25    1
    87    33    30    1
    88    33    34    1
    89    30    29    1
    90    21    22    1
    91    25    22    1
    92    22    23    1
    93    23    24    2
