@<TRIPOS>MOLECULE
tmp/1uxxA00.pdb
 113 112 0 0 0
SMALL
GASTEIGER

@<TRIPOS>ATOM
      1  N         12.7070    5.8080   20.6520 N.3    18  ILE18      -0.1231
      2  CA        12.1200    5.7240   21.9920 C.3    18  ILE18       0.1692
      3  C         12.4600    4.3810   22.5970 C.2    18  ILE18       0.2593
      4  O         12.8890    3.4740   21.9110 O.2    18  ILE18      -0.2718
      5  CB        10.5770    5.8930   21.9170 C.3    18  ILE18       0.0266
      6  CG1        9.9340    4.8330   21.0330 C.3    18  ILE18       0.0019
      7  CG2       10.2040    7.2930   21.4090 C.3    18  ILE18       0.0020
      8  CD1        8.4020    4.7650   21.1500 C.3    18  ILE18       0.0001
      9  N         12.2330    4.2480   23.8920 N.am   19  GLY19      -0.1942
     10  CA        12.3540    2.9610   24.5350 C.3    19  GLY19       0.2014
     11  C         10.9800    2.3750   24.7600 C.2    19  GLY19       0.2640
     12  O          9.9540    3.0730   24.6830 O.2    19  GLY19      -0.2714
     13  N         10.9800    1.0780   25.0380 N.am   20  THR20      -0.1936
     14  CA         9.8410    0.3770   25.5980 C.3    20  THR20       0.2028
     15  C         10.1970   -0.0570   27.0310 C.2    20  THR20       0.2642
     16  O         11.3810   -0.1290   27.4170 O.2    20  THR20      -0.2714
     17  CB         9.5340   -0.8570   24.7530 C.3    20  THR20       0.1808
     18  OG1       10.5460   -1.8370   24.9890 O.3    20  THR20      -0.2208
     19  CG2        9.6400   -0.5740   23.2410 C.3    20  THR20       0.0379
     20  N          9.1730   -0.3730   27.8090 N.am   21  SER21      -0.1949
     21  CA         9.3310   -0.7640   29.2090 C.3    21  SER21       0.1924
     22  C          9.9890   -2.1270   29.3690 C.2    21  SER21       0.2314
     23  O         10.3850   -2.4970   30.4720 O.2    21  SER21      -0.2863
     24  CB         7.9580   -0.7520   29.8860 C.3    21  SER21       0.2116
     25  OG         7.3340    0.5190   29.6840 O.3    21  SER21      -0.2180
     26  N          8.8760    6.6050   17.7500 N.3    28  GLY28      -0.1210
     27  CA         7.6890    7.3600   18.0920 C.3    28  GLY28       0.1956
     28  C          7.7750    8.7820   17.5880 C.2    28  GLY28       0.2612
     29  O          8.6500    9.1160   16.7880 O.2    28  GLY28      -0.2717
     30  N          6.8340    9.5730   18.0440 N.am   29  TYR29      -0.1962
     31  CA         6.6430   10.9550   17.6060 C.3    29  TYR29       0.1771
     32  C          6.4810   11.0620   16.0860 C.2    29  TYR29       0.2619
     33  O          6.9650   11.9940   15.4290 O.2    29  TYR29      -0.2715
     34  CB         7.7250   11.8560   18.2080 C.3    29  TYR29       0.0574
     35  CG         7.6890   11.8430   19.6960 C.ar   29  TYR29      -0.0198
     36  CD1        8.5080   10.9730   20.4230 C.ar   29  TYR29      -0.0009
     37  CD2        6.8520   12.7010   20.4000 C.ar   29  TYR29      -0.0009
     38  CE1        8.4850   10.9590   21.8020 C.ar   29  TYR29       0.0417
     39  CE2        6.8150   12.6800   21.7890 C.ar   29  TYR29       0.0417
     40  CZ         7.6320   11.8210   22.4700 C.ar   29  TYR29       0.1957
     41  OH         7.6310   11.7560   23.8470 O.3    29  TYR29      -0.2866
     42  N          5.7550   10.1010   15.5130 N.am   30  ILE30      -0.1977
     43  CA         5.4380   10.1030   14.1000 C.3    30  ILE30       0.1596
     44  C          4.2430   11.0310   13.8350 C.2    30  ILE30       0.2287
     45  O          3.2660   10.9960   14.5710 O.2    30  ILE30      -0.2864
     46  CB         5.0690    8.6730   13.6540 C.3    30  ILE30       0.0276
     47  CG1        6.2460    7.7150   13.8420 C.3    30  ILE30       0.0022
     48  CG2        4.5900    8.6630   12.2220 C.3    30  ILE30       0.0022
     49  CD1        5.9080    6.2740   13.5730 C.3    30  ILE30       0.0001
     50  N         -3.6220    6.8640   20.4510 N.3    58  ALA58      -0.1231
     51  CA        -4.2960    7.8440   19.6040 C.3    58  ALA58       0.1694
     52  C         -5.7920    7.6320   19.6500 C.2    58  ALA58       0.2592
     53  O         -6.2720    6.5180   19.8400 O.2    58  ALA58      -0.2718
     54  CB        -3.8170    7.7660   18.1770 C.3    58  ALA58       0.0304
     55  N         -6.5370    8.6870   19.4060 N.am   59  ASP59      -0.1960
     56  CA        -7.9810    8.5160   19.3790 C.3    59  ASP59       0.1840
     57  C         -8.5590    8.4810   17.9630 C.2    59  ASP59       0.2622
     58  O         -9.7620    8.5600   17.8020 O.2    59  ASP59      -0.2715
     59  CB        -8.6720    9.5160   20.3030 C.3    59  ASP59       0.1450
     60  CG        -8.5190   10.9290   19.8500 C.2    59  ASP59       0.3671
     61  OD1       -8.0410   11.1640   18.7140 O.co2  59  ASP59      -0.2456
     62  OD2       -8.8790   11.8720   20.6020 O.co2  59  ASP59      -0.2456
     63  N         -7.7000    8.3280   16.9460 N.am   60  THR60      -0.1951
     64  CA        -8.1180    7.9420   15.5990 C.3    60  THR60       0.1897
     65  C         -7.1470    6.8930   15.0890 C.2    60  THR60       0.2313
     66  O         -6.0150    6.8280   15.5520 O.2    60  THR60      -0.2863
     67  CB        -8.0840    9.1210   14.6310 C.3    60  THR60       0.1794
     68  OG1       -6.7550    9.6480   14.5650 O.3    60  THR60      -0.2208
     69  CG2       -8.9210   10.2630   15.1380 C.3    60  THR60       0.0378
     70  N          0.3780    4.5560   24.8470 N.3    87  TRP87      -0.1227
     71  CA         1.5950    4.6720   24.0720 C.3    87  TRP87       0.1737
     72  C          2.6840    3.6970   24.4500 C.2    87  TRP87       0.2595
     73  O          3.6180    3.4820   23.6660 O.2    87  TRP87      -0.2718
     74  CB         2.1570    6.1000   24.1730 C.3    87  TRP87       0.0564
     75  CG         1.2370    7.0800   23.6120 C.ar   87  TRP87       0.0003
     76  CD1        0.4740    7.9730   24.2930 C.ar   87  TRP87       0.0946
     77  CD2        0.9080    7.2310   22.2390 C.ar   87  TRP87       0.0152
     78  NE1       -0.3030    8.6970   23.4240 N.ar   87  TRP87      -0.2442
     79  CE2       -0.0540    8.2660   22.1470 C.ar   87  TRP87       0.0810
     80  CE3        1.3350    6.6040   21.0570 C.ar   87  TRP87       0.0012
     81  CZ2       -0.5990    8.6590   20.9450 C.ar   87  TRP87       0.0191
     82  CZ3        0.8130    7.0160   19.8800 C.ar   87  TRP87       0.0001
     83  CH2       -0.1640    8.0130   19.8180 C.ar   87  TRP87       0.0015
     84  N          2.6080    3.0820   25.6320 N.am   88  ASN88      -0.1974
     85  CA         3.5660    2.0490   26.0170 C.3    88  ASN88       0.1688
     86  C          2.9590    0.6550   26.1710 C.2    88  ASN88       0.2292
     87  O          3.5890   -0.2340   26.7460 O.2    88  ASN88      -0.2864
     88  CB         4.2860    2.4550   27.3020 C.3    88  ASN88       0.1181
     89  CG         5.0660    3.7500   27.1320 C.2    88  ASN88       0.2629
     90  OD1        5.7230    3.9630   26.0990 O.2    88  ASN88      -0.2716
     91  ND2        4.9990    4.6230   28.1330 N.am   88  ASN88      -0.0877
     92  N          0.0910    9.2270   14.1760 N.3   113  PRO113     -0.2102
     93  CA         1.0130    8.7180   15.1800 C.3   113  PRO113      0.1504
     94  C          0.7740    7.2360   15.4960 C.2   113  PRO113      0.2576
     95  O         -0.3400    6.7110   15.4160 O.2   113  PRO113     -0.2718
     96  CB         0.6980    9.5680   16.4120 C.3   113  PRO113      0.0282
     97  CG        -0.6950    9.9630   16.2320 C.3   113  PRO113      0.0208
     98  CD        -0.9270   10.1070   14.7780 C.3   113  PRO113      0.0893
     99  N          1.8630    6.5960   15.8580 N.am  114  VAL114     -0.1966
    100  CA         1.9040    5.2070   16.3360 C.3   114  VAL114      0.1727
    101  C          3.3000    4.9830   16.8590 C.2   114  VAL114      0.2616
    102  O          4.2490    5.5440   16.3090 O.2   114  VAL114     -0.2715
    103  CB         1.5530    4.1520   15.2190 C.3   114  VAL114      0.0290
    104  CG1        2.5300    4.1520   14.0580 C.3   114  VAL114      0.0023
    105  CG2        1.4310    2.7310   15.8100 C.3   114  VAL114      0.0023
    106  N          3.4480    4.1550   17.8910 N.am  115  ASN115     -0.1972
    107  CA         4.7730    3.7340   18.3560 C.3   115  ASN115      0.1688
    108  C          5.0450    2.3470   17.7940 C.2   115  ASN115      0.2292
    109  O          4.1960    1.4620   17.8910 O.2   115  ASN115     -0.2864
    110  CB         4.8970    3.7430   19.8860 C.3   115  ASN115      0.1181
    111  CG         4.9590    5.1660   20.4610 C.2   115  ASN115      0.2629
    112  OD1        5.1030    6.1310   19.7000 O.2   115  ASN115     -0.2716
    113  ND2        4.8500    5.2980   21.8010 N.am  115  ASN115     -0.0877
@<TRIPOS>BOND
     1    48    46    1
     2    49    47    1
     3    46    47    1
     4    46    43    1
     5    44    43    1
     6    44    45    2
     7   104   103    1
     8    43    42    1
     9    92    98    1
    10    92    93    1
    11    68    67    1
    12    67    69    1
    13    67    64    1
    14    98    97    1
    15    65    66    2
    16    65    64    1
    17    93    94    1
    18    93    96    1
    19   103   105    1
    20   103   100    1
    21    95    94    2
    22    33    32    2
    23    94    99   am
    24    42    32   am
    25    64    63    1
    26    99   100    1
    27    32    31    1
    28    97    96    1
    29   102   101    2
    30   100   101    1
    31    29    28    2
    32   101   106   am
    33    63    57   am
    34    28    30   am
    35    28    27    1
    36    31    30    1
    37    31    34    1
    38    26    27    1
    39   108   109    2
    40   108   107    1
    41    58    57    2
    42   106   107    1
    43    57    56    1
    44    54    51    1
    45    34    35    1
    46   107   110    1
    47    61    60   ar
    48    56    55    1
    49    56    59    1
    50    55    52   am
    51    51    52    1
    52    51    50    1
    53    52    53    2
    54    35    37   ar
    55    35    36   ar
    56   112   111    2
    57    83    82   ar
    58    83    81   ar
    59    60    59    1
    60    60    62   ar
    61    82    80   ar
    62   110   111    1
    63    37    39   ar
    64    36    38   ar
    65   111   113   am
    66     1     2    1
    67    81    79   ar
    68     6     8    1
    69     6     5    1
    70    80    77   ar
    71     7     5    1
    72    39    40   ar
    73    38    40   ar
    74     4     3    2
    75     5     2    1
    76     2     3    1
    77    79    77   ar
    78    79    78   ar
    79    77    75   ar
    80    40    41    1
    81     3     9   am
    82    19    17    1
    83    78    76   ar
    84    75    74    1
    85    75    76   ar
    86    73    72    2
    87     9    10    1
    88    71    74    1
    89    71    72    1
    90    71    70    1
    91    72    84   am
    92    10    11    1
    93    12    11    2
    94    17    18    1
    95    17    14    1
    96    11    13   am
    97    13    14    1
    98    14    15    1
    99    84    85    1
   100    85    86    1
   101    85    88    1
   102    90    89    2
   103    86    87    2
   104    15    16    2
   105    15    20   am
   106    89    88    1
   107    89    91   am
   108    20    21    1
   109    21    22    1
   110    21    24    1
   111    22    23    2
   112    25    24    1
