@<TRIPOS>MOLECULE
tmp/1uy0A00.pdb
 100 97 0 0 0
SMALL
GASTEIGER

@<TRIPOS>ATOM
      1  N         17.1080   -1.6570   31.7180 N.3    12  SER12      -0.1202
      2  CA        15.7680   -2.0560   31.2610 C.3    12  SER12       0.2020
      3  C         15.0910   -3.0630   32.1840 C.2    12  SER12       0.2618
      4  O         13.8400   -3.1740   32.2180 O.2    12  SER12      -0.2717
      5  CB        15.8310   -2.5850   29.8330 C.3    12  SER12       0.2103
      6  OG        16.8070   -3.5930   29.6700 O.3    12  SER12      -0.2182
      7  N         15.8970   -3.8260   32.9110 N.am   13  GLN13      -0.1979
      8  CA        15.4370   -4.7320   33.9530 C.3    13  GLN13       0.1601
      9  C         16.5080   -4.8250   35.0400 C.2    13  GLN13       0.2287
     10  O         17.6760   -4.5570   34.8100 O.2    13  GLN13      -0.2864
     11  CB        15.1650   -6.1220   33.3970 C.3    13  GLN13       0.0394
     12  CG        14.1490   -6.9240   34.1580 C.3    13  GLN13       0.0908
     13  CD        13.5960   -8.1140   33.3510 C.2    13  GLN13       0.2608
     14  OE1       13.6990   -8.1470   32.1170 O.2    13  GLN13      -0.2717
     15  NE2       13.0230   -9.0830   34.0500 N.am   13  GLN13      -0.0878
     16  N         21.2770   -8.2900   39.8930 N.3    39  TRP39      -0.1227
     17  CA        21.7380   -8.0240   38.5330 C.3    39  TRP39       0.1737
     18  C         21.0510   -6.8630   37.8870 C.2    39  TRP39       0.2595
     19  O         20.0360   -6.3840   38.3640 O.2    39  TRP39      -0.2718
     20  CB        21.5900   -9.2910   37.6710 C.3    39  TRP39       0.0564
     21  CG        20.1860   -9.8930   37.5870 C.ar   39  TRP39       0.0003
     22  CD1       19.7250  -10.9950   38.2810 C.ar   39  TRP39       0.0946
     23  CD2       19.1070   -9.4910   36.7310 C.ar   39  TRP39       0.0152
     24  NE1       18.4270  -11.2720   37.9170 N.ar   39  TRP39      -0.2442
     25  CE2       18.0240  -10.3760   36.9650 C.ar   39  TRP39       0.0810
     26  CE3       18.9280   -8.4610   35.8120 C.ar   39  TRP39       0.0012
     27  CZ2       16.7970  -10.2450   36.3330 C.ar   39  TRP39       0.0191
     28  CZ3       17.6980   -8.3540   35.1570 C.ar   39  TRP39       0.0001
     29  CH2       16.6520   -9.2360   35.4250 C.ar   39  TRP39       0.0015
     30  N         21.6850   -6.3830   36.8100 N.am   40  LEU40      -0.1966
     31  CA        21.2410   -5.2270   36.0550 C.3    40  LEU40       0.1728
     32  C         21.3130   -5.6080   34.5780 C.2    40  LEU40       0.2616
     33  O         22.3430   -6.1110   34.1130 O.2    40  LEU40      -0.2715
     34  CB        22.2110   -4.0670   36.3330 C.3    40  LEU40       0.0311
     35  CG        22.3810   -3.6370   37.7860 C.3    40  LEU40       0.0022
     36  CD1       23.5600   -2.6860   37.9950 C.3    40  LEU40       0.0001
     37  CD2       21.1510   -2.9590   38.2680 C.3    40  LEU40       0.0001
     38  N         20.2350   -5.3940   33.8470 N.am   41  SER41      -0.1950
     39  CA        20.2020   -5.6360   32.4140 C.3    41  SER41       0.1924
     40  C         20.0900   -4.3440   31.6480 C.2    41  SER41       0.2314
     41  O         19.2740   -3.4910   31.9970 O.2    41  SER41      -0.2863
     42  CB        18.9890   -6.4730   32.0470 C.3    41  SER41       0.2116
     43  OG        18.8960   -6.6290   30.6320 O.3    41  SER41      -0.2180
     44  N         19.5530   -4.6060   28.2590 N.3    43  ALA43      -0.1245
     45  CA        19.0430   -5.1480   27.0000 C.3    43  ALA43       0.1562
     46  C         18.2400   -4.1450   26.1780 C.2    43  ALA43       0.2260
     47  O         18.2280   -4.2110   24.9460 O.2    43  ALA43      -0.2867
     48  CB        18.2230   -6.3750   27.2630 C.3    43  ALA43       0.0290
     49  N         28.5940   -9.4210   31.2360 N.3    73  GLU73      -0.1231
     50  CA        28.1150  -10.4950   30.3700 C.3    73  GLU73       0.1699
     51  C         27.0670   -9.9510   29.4040 C.2    73  GLU73       0.2592
     52  O         26.8460   -8.7690   29.3310 O.2    73  GLU73      -0.2718
     53  CB        27.5180  -11.6180   31.2380 C.3    73  GLU73       0.0402
     54  CG        26.4360  -11.1290   32.1770 C.3    73  GLU73       0.1161
     55  CD        26.0010  -12.1160   33.2290 C.2    73  GLU73       0.3649
     56  OE1       26.8570  -12.8110   33.7850 O.co2  73  GLU73      -0.2457
     57  OE2       24.7890  -12.1270   33.5300 O.co2  73  GLU73      -0.2457
     58  N         26.5010  -10.8260   28.5910 N.am   74  GLU74      -0.1966
     59  CA        25.2860  -10.4850   27.8550 C.3    74  GLU74       0.1733
     60  C         24.1260  -10.6720   28.7740 C.2    74  GLU74       0.2616
     61  O         24.1410  -11.5560   29.6540 O.2    74  GLU74      -0.2715
     62  CB        25.1030  -11.3690   26.6330 C.3    74  GLU74       0.0429
     63  CG        26.1340  -11.2020   25.5610 C.3    74  GLU74       0.1163
     64  CD        26.1860   -9.8190   24.9220 C.2    74  GLU74       0.3649
     65  OE1       27.1580   -9.1480   25.1920 O.co2  74  GLU74      -0.2457
     66  OE2       25.2650   -9.4210   24.1420 O.co2  74  GLU74      -0.2457
     67  N         23.1150   -9.8400   28.5870 N.am   75  ALA75      -0.1963
     68  CA        21.8790   -9.9140   29.3400 C.3    75  ALA75       0.1728
     69  C         21.3480  -11.3410   29.2120 C.2    75  ALA75       0.2617
     70  O         21.3280  -11.9020   28.1420 O.2    75  ALA75      -0.2715
     71  CB        20.8930   -8.9400   28.7910 C.3    75  ALA75       0.0334
     72  N         20.9480  -11.9250   30.3170 N.am   76  GLY76      -0.1940
     73  CA        20.4850  -13.2960   30.2830 C.3    76  GLY76       0.2014
     74  C         21.5200  -14.2510   30.8190 C.2    76  GLY76       0.2639
     75  O         21.1590  -15.3460   31.2440 O.2    76  GLY76      -0.2714
     76  N         22.8000  -13.8750   30.7820 N.am   77  GLY77      -0.1954
     77  CA        23.8250  -14.6310   31.4720 C.3    77  GLY77       0.1869
     78  C         24.9770  -15.2240   30.6770 C.2    77  GLY77       0.2309
     79  O         25.9780  -15.6300   31.2760 O.2    77  GLY77      -0.2863
     80  N         24.7470   -7.0690   30.3660 N.3   112  GLY112     -0.1210
     81  CA        24.2330   -7.2680   31.7060 C.3   112  GLY112      0.1956
     82  C         25.3660   -7.3300   32.7130 C.2   112  GLY112      0.2612
     83  O         26.5100   -7.6150   32.3550 O.2   112  GLY112     -0.2717
     84  N         25.0380   -7.0220   33.9650 N.am  113  ILE113     -0.1965
     85  CA        25.9470   -7.1420   35.0950 C.3   113  ILE113      0.1727
     86  C         25.3050   -8.0240   36.1660 C.2   113  ILE113      0.2616
     87  O         24.1850   -7.7750   36.5720 O.2   113  ILE113     -0.2715
     88  CB        26.2890   -5.7870   35.6580 C.3   113  ILE113      0.0290
     89  CG1       27.1320   -5.0210   34.6450 C.3   113  ILE113      0.0022
     90  CG2       27.0500   -5.9180   36.9620 C.3   113  ILE113      0.0023
     91  CD1       27.3790   -3.5930   35.0070 C.3   113  ILE113      0.0001
     92  N         26.0570   -8.9940   36.6540 N.am  114  LYS114     -0.1977
     93  CA        25.6630   -9.8440   37.7820 C.3   114  LYS114      0.1596
     94  C         26.5860   -9.5750   38.9500 C.2   114  LYS114      0.2287
     95  O         27.8100   -9.5940   38.8060 O.2   114  LYS114     -0.2864
     96  CB        25.7350  -11.3160   37.3810 C.3   114  LYS114      0.0298
     97  CG        25.5280  -12.3190   38.5260 C.3   114  LYS114      0.0038
     98  CD        24.0670  -12.3170   39.0460 C.3   114  LYS114      0.0206
     99  CE        23.5080  -13.7310   39.2190 C.3   114  LYS114      0.1093
    100  NZ        22.9260  -14.3130   37.9790 N.3   114  LYS114     -0.1314
@<TRIPOS>BOND
     1    66    64   ar
     2    64    65   ar
     3    64    63    1
     4    47    46    2
     5    63    62    1
     6    46    45    1
     7    62    59    1
     8    45    48    1
     9    45    44    1
    10    59    58    1
    11    59    60    1
    12    70    69    2
    13    67    60   am
    14    67    68    1
    15    58    51   am
    16    60    61    2
    17    71    68    1
    18    69    68    1
    19    69    72   am
    20    52    51    2
    21    51    50    1
    22     6     5    1
    23     5     2    1
    24    73    72    1
    25    73    74    1
    26    80    81    1
    27    50    49    1
    28    50    53    1
    29    43    42    1
    30    78    79    2
    31    78    77    1
    32    76    74   am
    33    76    77    1
    34    74    75    2
    35    53    54    1
    36     2     1    1
    37     2     3    1
    38    40    41    2
    39    40    39    1
    40    81    82    1
    41    42    39    1
    42    14    13    2
    43    54    55    1
    44     3     4    2
    45     3     7   am
    46    83    82    2
    47    39    38    1
    48    82    84   am
    49     7     8    1
    50    55    57   ar
    51    55    56   ar
    52    13    15   am
    53    13    12    1
    54    11     8    1
    55    11    12    1
    56    38    32   am
    57     8     9    1
    58    84    85    1
    59    33    32    2
    60    32    31    1
    61    89    91    1
    62    89    88    1
    63    10     9    2
    64    85    88    1
    65    85    86    1
    66    28    29   ar
    67    28    26   ar
    68    29    27   ar
    69    88    90    1
    70    26    23   ar
    71    31    34    1
    72    31    30    1
    73    86    87    2
    74    86    92   am
    75    27    25   ar
    76    34    35    1
    77    92    93    1
    78    23    25   ar
    79    23    21   ar
    80    30    18   am
    81    25    24   ar
    82    96    93    1
    83    96    97    1
    84    21    20    1
    85    21    22   ar
    86    20    17    1
    87    93    94    1
    88    35    36    1
    89    35    37    1
    90    18    19    2
    91    18    17    1
    92    24    22   ar
    93   100    99    1
    94    97    98    1
    95    17    16    1
    96    95    94    2
    97    98    99    1
