@<TRIPOS>MOLECULE
tmp/1uy0B00.pdb
 110 105 0 0 0
SMALL
GASTEIGER

@<TRIPOS>ATOM
      1  N         18.7870    1.5280   10.6130 N.3    12  SER12      -0.1202
      2  CA        19.3550    0.2350   10.2410 C.3    12  SER12       0.2020
      3  C         20.3830   -0.2800   11.2460 C.2    12  SER12       0.2618
      4  O         20.5850   -1.4910   11.3720 O.2    12  SER12      -0.2717
      5  CB        19.9800    0.3120    8.8430 C.3    12  SER12       0.2103
      6  OG        20.8530    1.4030    8.7110 O.3    12  SER12      -0.2182
      7  N         21.0730    0.6360   11.9220 N.am   13  GLN13      -0.1979
      8  CA        21.9660    0.3080   13.0280 C.3    13  GLN13       0.1601
      9  C         21.8640    1.4380   14.0570 C.2    13  GLN13       0.2287
     10  O         21.5080    2.5650   13.7110 O.2    13  GLN13      -0.2864
     11  CB        23.4310    0.2010   12.5560 C.3    13  GLN13       0.0394
     12  CG        23.8390   -1.0450   11.8070 C.3    13  GLN13       0.0908
     13  CD        25.2700   -1.5070   12.1500 C.2    13  GLN13       0.2608
     14  OE1       26.1320   -0.6980   12.4950 O.2    13  GLN13      -0.2717
     15  NE2       25.5040   -2.8150   12.0940 N.am   13  GLN13      -0.0878
     16  N         23.5800    2.6060   18.3300 N.3    15  SER15      -0.1217
     17  CA        24.2600    2.2140   19.5520 C.3    15  SER15       0.1889
     18  C         23.8120    3.0220   20.7530 C.2    15  SER15       0.2288
     19  O         23.8030    4.2720   20.7100 O.2    15  SER15      -0.2866
     20  CB        25.7650    2.3740   19.3720 C.3    15  SER15       0.2089
     21  OG        26.4930    1.8300   20.4560 O.3    15  SER15      -0.2183
     22  N         28.0150   10.0330   22.7170 N.3    37  GLY37      -0.1225
     23  CA        28.6520    8.9140   22.0190 C.3    37  GLY37       0.1811
     24  C         27.6640    7.9150   21.3880 C.2    37  GLY37       0.2280
     25  O         28.0610    7.1030   20.5410 O.2    37  GLY37      -0.2866
     26  N         24.6280    6.7490   18.9020 N.3    39  TRP39      -0.1227
     27  CA        24.4100    7.1180   17.5260 C.3    39  TRP39       0.1737
     28  C         23.3030    6.3230   16.8600 C.2    39  TRP39       0.2595
     29  O         22.8980    5.2410   17.3320 O.2    39  TRP39      -0.2718
     30  CB        25.7170    7.0240   16.7350 C.3    39  TRP39       0.0564
     31  CG        26.4040    5.7020   16.7970 C.ar   39  TRP39       0.0003
     32  CD1       27.4410    5.3710   17.6050 C.ar   39  TRP39       0.0946
     33  CD2       26.1670    4.5670   15.9640 C.ar   39  TRP39       0.0152
     34  NE1       27.8470    4.0880   17.3640 N.ar   39  TRP39      -0.2442
     35  CE2       27.0920    3.5710   16.3430 C.ar   39  TRP39       0.0810
     36  CE3       25.2520    4.2780   14.9470 C.ar   39  TRP39       0.0012
     37  CZ2       27.1260    2.3160   15.7450 C.ar   39  TRP39       0.0191
     38  CZ3       25.2810    3.0410   14.3470 C.ar   39  TRP39       0.0001
     39  CH2       26.2230    2.0700   14.7440 C.ar   39  TRP39       0.0015
     40  N         22.8530    6.8560   15.7320 N.am   40  LEU40      -0.1966
     41  CA        21.8060    6.2860   14.9080 C.3    40  LEU40       0.1728
     42  C         22.2420    6.3020   13.4400 C.2    40  LEU40       0.2616
     43  O         22.7280    7.3070   12.9450 O.2    40  LEU40      -0.2715
     44  CB        20.5260    7.1290   15.0410 C.3    40  LEU40       0.0311
     45  CG        19.9400    7.2880   16.4540 C.3    40  LEU40       0.0022
     46  CD1       19.0720    8.5180   16.5770 C.3    40  LEU40       0.0001
     47  CD2       19.1760    6.0610   16.8050 C.3    40  LEU40       0.0001
     48  N         22.0690    5.1930   12.7420 N.am   41  SER41      -0.1950
     49  CA        22.3580    5.1300   11.3030 C.3    41  SER41       0.1924
     50  C         21.1100    4.8390   10.4890 C.2    41  SER41       0.2314
     51  O         20.3410    3.9660   10.8450 O.2    41  SER41      -0.2863
     52  CB        23.3670    4.0380   11.0090 C.3    41  SER41       0.2116
     53  OG        23.5520    3.8610    9.6120 O.3    41  SER41      -0.2180
     54  N         21.5870    4.1430    7.1440 N.3    43  ALA43      -0.1245
     55  CA        22.2400    3.6680    5.9300 C.3    43  ALA43       0.1562
     56  C         21.4030    2.6880    5.1240 C.2    43  ALA43       0.2260
     57  O         21.5440    2.6090    3.8990 O.2    43  ALA43      -0.2867
     58  CB        23.5970    3.0660    6.2610 C.3    43  ALA43       0.0290
     59  N         25.3510   13.8140    9.9200 N.3    73  GLU73      -0.1231
     60  CA        26.5140   13.3960    9.1310 C.3    73  GLU73       0.1699
     61  C         26.1280   12.2510    8.2140 C.2    73  GLU73       0.2592
     62  O         24.9590   11.8950    8.1260 O.2    73  GLU73      -0.2718
     63  CB        27.6180   12.9590   10.0940 C.3    73  GLU73       0.0402
     64  CG        27.1970   11.8530   11.0540 C.3    73  GLU73       0.1161
     65  CD        28.2110   11.6040   12.1800 C.2    73  GLU73       0.3649
     66  OE1       28.7910   12.5890   12.7060 O.co2  73  GLU73      -0.2457
     67  OE2       28.3620   10.4330   12.5810 O.co2  73  GLU73      -0.2457
     68  N         27.0940   11.7010    7.4930 N.am   74  GLU74      -0.1966
     69  CA        26.8450   10.4640    6.7800 C.3    74  GLU74       0.1733
     70  C         27.1380    9.3580    7.7670 C.2    74  GLU74       0.2616
     71  O         28.0110    9.5250    8.6520 O.2    74  GLU74      -0.2715
     72  CB        27.7480   10.3120    5.5750 C.3    74  GLU74       0.0429
     73  CG        27.5690   11.3000    4.4620 C.3    74  GLU74       0.1163
     74  CD        26.1920   11.2070    3.8130 C.2    74  GLU74       0.3649
     75  OE1       25.4150   12.1300    4.0330 O.co2  74  GLU74      -0.2457
     76  OE2       25.9300   10.2190    3.0800 O.co2  74  GLU74      -0.2457
     77  N         26.4210    8.2510    7.6320 N.am   75  ALA75      -0.1963
     78  CA        26.6450    7.0370    8.4050 C.3    75  ALA75       0.1728
     79  C         28.1270    6.6410    8.3430 C.2    75  ALA75       0.2617
     80  O         28.7390    6.6070    7.2850 O.2    75  ALA75      -0.2715
     81  CB        25.7780    5.9140    7.8680 C.3    75  ALA75       0.0334
     82  N         28.7110    6.4130    9.5020 N.am   76  GLY76      -0.1940
     83  CA        30.1390    6.1480    9.5930 C.3    76  GLY76       0.2014
     84  C         30.9560    7.3050   10.1320 C.2    76  GLY76       0.2639
     85  O         32.0530    7.0760   10.6580 O.2    76  GLY76      -0.2714
     86  N         30.4720    8.5410    9.9690 N.am   77  GLY77      -0.1954
     87  CA        31.0640    9.6900   10.6350 C.3    77  GLY77       0.1869
     88  C         31.5520   10.8440    9.7700 C.2    77  GLY77       0.2309
     89  O         31.8570   11.9200   10.2980 O.2    77  GLY77      -0.2863
     90  N         23.4320    9.7000    9.1390 N.3   112  GLY112     -0.1210
     91  CA        23.6470    9.2660   10.5120 C.3   112  GLY112      0.1956
     92  C         23.5840   10.4330   11.4650 C.2   112  GLY112      0.2612
     93  O         23.7670   11.5970   11.0670 O.2   112  GLY112     -0.2717
     94  N         23.3020   10.1320   12.7350 N.am  113  ILE113     -0.1965
     95  CA        23.3070   11.1170   13.8160 C.3   113  ILE113      0.1727
     96  C         24.1850   10.6140   14.9480 C.2   113  ILE113      0.2616
     97  O         24.0100    9.4940   15.3950 O.2   113  ILE113     -0.2715
     98  CB        21.8740   11.3350   14.3520 C.3   113  ILE113      0.0290
     99  CG1       21.0360   12.0510   13.2810 C.3   113  ILE113      0.0022
    100  CG2       21.8970   12.1700   15.6150 C.3   113  ILE113      0.0023
    101  CD1       19.5550   12.1020   13.5420 C.3   113  ILE113      0.0001
    102  N         25.0700   11.4800   15.4400 N.am  114  LYS114     -0.1977
    103  CA        25.8490   11.1800   16.6210 C.3   114  LYS114      0.1596
    104  C         25.4330   12.1300   17.7180 C.2   114  LYS114      0.2287
    105  O         25.3810   13.3250   17.4940 O.2   114  LYS114     -0.2864
    106  CB        27.3380   11.3710   16.3280 C.3   114  LYS114      0.0298
    107  CG        28.2590   11.4090   17.5480 C.3   114  LYS114      0.0038
    108  CD        28.3310   10.0710   18.2190 C.3   114  LYS114      0.0206
    109  CE        29.3450    9.1830   17.5620 C.3   114  LYS114      0.1093
    110  NZ        30.7190    9.5490   17.9170 N.3   114  LYS114     -0.1314
@<TRIPOS>BOND
     1    76    74   ar
     2    74    75   ar
     3    74    73    1
     4    57    56    2
     5    73    72    1
     6    56    55    1
     7    72    69    1
     8    55    58    1
     9    55    54    1
    10    69    68    1
    11    69    70    1
    12    80    79    2
    13    68    61   am
    14    77    70   am
    15    77    78    1
    16    70    71    2
    17    81    78    1
    18    62    61    2
    19    61    60    1
    20    79    78    1
    21    79    82   am
    22     6     5    1
    23     5     2    1
    24    60    59    1
    25    60    63    1
    26    90    91    1
    27    82    83    1
    28    83    84    1
    29    53    52    1
    30    88    89    2
    31    88    87    1
    32    86    84   am
    33    86    87    1
    34    63    64    1
    35    84    85    2
    36     2     1    1
    37     2     3    1
    38    50    51    2
    39    50    49    1
    40    91    92    1
    41    52    49    1
    42    64    65    1
    43    93    92    2
    44     3     4    2
    45     3     7   am
    46    49    48    1
    47    92    94   am
    48    12    13    1
    49    12    11    1
    50     7     8    1
    51    15    13   am
    52    13    14    2
    53    65    67   ar
    54    65    66   ar
    55    11     8    1
    56    94    95    1
    57    48    42   am
    58    43    42    2
    59     8     9    1
    60    99   101    1
    61    99    98    1
    62    42    41    1
    63    10     9    2
    64    95    98    1
    65    95    96    1
    66    38    39   ar
    67    38    36   ar
    68    98   100    1
    69    39    37   ar
    70    41    44    1
    71    41    40    1
    72    36    33   ar
    73    96    97    2
    74    96   102   am
    75    44    45    1
    76   102   103    1
    77    40    28   am
    78    37    35   ar
    79    33    35   ar
    80    33    31   ar
    81   106   103    1
    82   106   107    1
    83    35    34   ar
    84    45    46    1
    85    45    47    1
    86   103   104    1
    87    30    31    1
    88    30    27    1
    89    31    32   ar
    90    28    29    2
    91    28    27    1
    92    34    32   ar
    93   105   104    2
    94    27    26    1
    95   107   108    1
    96   109   110    1
    97   109   108    1
    98    16    17    1
    99    20    17    1
   100    20    21    1
   101    17    18    1
   102    25    24    2
   103    19    18    2
   104    24    23    1
   105    23    22    1
