@<TRIPOS>MOLECULE
tmp/1uy2A00.pdb
 80 80 0 0 0
SMALL
GASTEIGER

@<TRIPOS>ATOM
      1  N         13.4470    5.2320   11.3940 N.3    27  ILE27      -0.1231
      2  CA        12.6830    6.1870   12.1980 C.3    27  ILE27       0.1692
      3  C         11.7410    6.9900   11.2960 C.2    27  ILE27       0.2592
      4  O         11.9090    7.0050   10.0780 O.2    27  ILE27      -0.2718
      5  CB        13.6330    7.1330   12.9610 C.3    27  ILE27       0.0266
      6  CG1       14.5560    7.8990   11.9970 C.3    27  ILE27       0.0019
      7  CG2       14.4750    6.3340   14.0020 C.3    27  ILE27       0.0020
      8  CD1       15.1240    9.0900   12.5280 C.3    27  ILE27       0.0001
      9  N         10.7380    7.6080   11.9120 N.am   28  GLY28      -0.1957
     10  CA         9.8710    8.5640   11.2490 C.3    28  GLY28       0.1869
     11  C         10.4350    9.9720   11.4070 C.2    28  GLY28       0.2309
     12  O         11.2460   10.2810   12.2800 O.2    28  GLY28      -0.2863
     13  N         18.1160    6.2100   12.3330 N.3    37  GLY37      -0.1210
     14  CA        18.6350    6.7580   13.5450 C.3    37  GLY37       0.1956
     15  C         19.0810    5.6380   14.4860 C.2    37  GLY37       0.2612
     16  O         19.2960    4.5220   14.0520 O.2    37  GLY37      -0.2717
     17  N         19.1880    5.9650   15.7660 N.am   38  TYR38      -0.1962
     18  CA        19.7930    5.0980   16.8130 C.3    38  TYR38       0.1771
     19  C         21.1640    4.5870   16.3670 C.2    38  TYR38       0.2619
     20  O         21.5150    3.4130   16.5860 O.2    38  TYR38      -0.2715
     21  CB        18.8190    4.0110   17.2640 C.3    38  TYR38       0.0574
     22  CG        17.5940    4.6560   17.8770 C.ar   38  TYR38      -0.0198
     23  CD1       16.4700    4.9310   17.1020 C.ar   38  TYR38      -0.0009
     24  CD2       17.5960    5.0830   19.2130 C.ar   38  TYR38      -0.0009
     25  CE1       15.3730    5.5720   17.6320 C.ar   38  TYR38       0.0417
     26  CE2       16.4930    5.7360   19.7650 C.ar   38  TYR38       0.0417
     27  CZ        15.3840    5.9590   18.9740 C.ar   38  TYR38       0.1957
     28  OH        14.2990    6.6080   19.5050 O.3    38  TYR38      -0.2866
     29  N         21.9050    5.4950   15.7120 N.am   39  ILE39      -0.1977
     30  CA        23.2340    5.2200   15.1840 C.3    39  ILE39       0.1596
     31  C         24.2970    5.4810   16.2480 C.2    39  ILE39       0.2287
     32  O         24.2130    6.4510   17.0110 O.2    39  ILE39      -0.2864
     33  CB        23.4910    6.0830   13.8980 C.3    39  ILE39       0.0276
     34  CG1       22.6370    5.5490   12.7520 C.3    39  ILE39       0.0022
     35  CG2       24.9830    6.1110   13.5290 C.3    39  ILE39       0.0022
     36  CD1       22.6150    6.4640   11.5270 C.3    39  ILE39       0.0001
     37  N         16.7140   16.4270   17.4440 N.3    94  TRP94      -0.1227
     38  CA        16.6860   15.1580   16.7100 C.3    94  TRP94       0.1737
     39  C         15.6580   15.1630   15.6160 C.2    94  TRP94       0.2595
     40  O         15.6440   14.2730   14.7630 O.2    94  TRP94      -0.2718
     41  CB        16.3980   13.9990   17.6820 C.3    94  TRP94       0.0564
     42  CG        17.4740   13.8410   18.7210 C.ar   94  TRP94       0.0003
     43  CD1       17.3510   14.0410   20.0780 C.ar   94  TRP94       0.0946
     44  CD2       18.8540   13.4750   18.4900 C.ar   94  TRP94       0.0152
     45  NE1       18.5710   13.8380   20.6830 N.ar   94  TRP94      -0.2442
     46  CE2       19.5060   13.4680   19.7420 C.ar   94  TRP94       0.0810
     47  CE3       19.5970   13.1420   17.3470 C.ar   94  TRP94       0.0012
     48  CZ2       20.8930   13.1270   19.8810 C.ar   94  TRP94       0.0191
     49  CZ3       20.9260   12.8130   17.4620 C.ar   94  TRP94       0.0001
     50  CH2       21.5910   12.8430   18.7360 C.ar   94  TRP94       0.0015
     51  N         14.8020   16.1950   15.6240 N.am   95  ASN95      -0.1974
     52  CA        13.7320   16.3530   14.6080 C.3    95  ASN95       0.1688
     53  C         13.8170   17.5990   13.7610 C.2    95  ASN95       0.2292
     54  O         12.9180   17.8420   12.9820 O.2    95  ASN95      -0.2864
     55  CB        12.3560   16.2380   15.2650 C.3    95  ASN95       0.1181
     56  CG        12.1330   14.8670   15.8600 C.2    95  ASN95       0.2629
     57  OD1       12.0170   14.7190   17.0900 O.2    95  ASN95      -0.2716
     58  ND2       12.1010   13.8540   15.0030 N.am   95  ASN95      -0.0877
     59  N         25.8870    9.6880   16.9450 N.3   120  PRO120     -0.2102
     60  CA        24.4670    9.7630   16.6310 C.3   120  PRO120      0.1504
     61  C         24.1060   10.9440   15.6990 C.2   120  PRO120      0.2576
     62  O         24.5720   12.0630   15.8770 O.2   120  PRO120     -0.2718
     63  CB        23.7880    9.9700   18.0110 C.3   120  PRO120      0.0282
     64  CG        24.8550   10.4790   18.8840 C.3   120  PRO120      0.0208
     65  CD        26.1400    9.8490   18.3940 C.3   120  PRO120      0.0893
     66  N         23.2720   10.6080   14.7350 N.am  121  VAL121     -0.1966
     67  CA        22.6790   11.5220   13.7450 C.3   121  VAL121      0.1727
     68  C         21.4980   10.7680   13.1120 C.2   121  VAL121      0.2616
     69  O         21.5020    9.5400   12.9730 O.2   121  VAL121     -0.2715
     70  CB        23.7050   11.9930   12.6870 C.3   121  VAL121      0.0290
     71  CG1       24.3620   10.7830   12.0040 C.3   121  VAL121      0.0023
     72  CG2       23.0880   12.9820   11.6450 C.3   121  VAL121      0.0023
     73  N         20.4470   11.5180   12.8110 N.am  122  ASN122     -0.1972
     74  CA        19.3370   11.0220   12.0930 C.3   122  ASN122      0.1688
     75  C         19.4970   11.4730   10.6190 C.2   122  ASN122      0.2292
     76  O         19.7590   12.6610   10.3260 O.2   122  ASN122     -0.2864
     77  CB        18.0460   11.5590   12.7080 C.3   122  ASN122      0.1181
     78  CG        17.7380   10.9510   14.0400 C.2   122  ASN122      0.2629
     79  OD1       18.2610    9.8940   14.3890 O.2   122  ASN122     -0.2716
     80  ND2       16.8700   11.6140   14.8020 N.am  122  ASN122     -0.0877
@<TRIPOS>BOND
     1     4     3    2
     2    76    75    2
     3    75    74    1
     4    10    11    1
     5    10     9    1
     6     3     9   am
     7     3     2    1
     8     1     2    1
     9    11    12    2
    10    36    34    1
    11    72    70    1
    12     6     8    1
    13     6     5    1
    14    71    70    1
    15    74    77    1
    16    74    73    1
    17     2     5    1
    18    13    14    1
    19    70    67    1
    20    77    78    1
    21    34    33    1
    22    73    68   am
    23     5     7    1
    24    69    68    2
    25    54    53    2
    26    68    67    1
    27    35    33    1
    28    14    15    1
    29    67    66    1
    30    53    52    1
    31    33    30    1
    32    78    79    2
    33    78    80   am
    34    16    15    2
    35    15    17   am
    36    52    55    1
    37    52    51    1
    38    66    61   am
    39    40    39    2
    40    58    56   am
    41    30    29    1
    42    30    31    1
    43    55    56    1
    44    39    51   am
    45    39    38    1
    46    61    62    2
    47    61    60    1
    48    29    19   am
    49    17    18    1
    50    56    57    2
    51    31    32    2
    52    19    20    2
    53    19    18    1
    54    60    59    1
    55    60    63    1
    56    38    37    1
    57    38    41    1
    58    18    21    1
    59    59    65    1
    60    23    25   ar
    61    23    22   ar
    62    21    22    1
    63    47    49   ar
    64    47    44   ar
    65    49    50   ar
    66    25    27   ar
    67    41    42    1
    68    22    24   ar
    69    63    64    1
    70    65    64    1
    71    44    42   ar
    72    44    46   ar
    73    42    43   ar
    74    50    48   ar
    75    27    28    1
    76    27    26   ar
    77    24    26   ar
    78    46    48   ar
    79    46    45   ar
    80    43    45   ar
