@<TRIPOS>MOLECULE
tmp/1uy3A00.pdb
 102 102 0 0 0
SMALL
GASTEIGER

@<TRIPOS>ATOM
      1  N         13.3290    4.9620   11.4230 N.3    27  ILE27      -0.1231
      2  CA        12.5690    5.9130   12.2330 C.3    27  ILE27       0.1692
      3  C         11.5800    6.6890   11.3240 C.2    27  ILE27       0.2593
      4  O         11.7330    6.7280   10.1100 O.2    27  ILE27      -0.2718
      5  CB        13.5220    6.8550   12.9850 C.3    27  ILE27       0.0266
      6  CG1       14.4580    7.6060   12.0340 C.3    27  ILE27       0.0019
      7  CG2       14.3240    6.0570   14.0160 C.3    27  ILE27       0.0020
      8  CD1       14.9950    8.8250   12.5610 C.3    27  ILE27       0.0001
      9  N         10.5750    7.3050   11.9280 N.am   28  GLY28      -0.1942
     10  CA         9.7230    8.2480   11.2390 C.3    28  GLY28       0.2014
     11  C         10.2600    9.6600   11.3870 C.2    28  GLY28       0.2640
     12  O         11.0530    9.9600   12.2850 O.2    28  GLY28      -0.2714
     13  N          9.7710   10.5520   10.5210 N.am   29  THR29      -0.1937
     14  CA        10.1280   11.9640   10.5750 C.3    29  THR29       0.2013
     15  C          8.8660   12.7800   10.7730 C.2    29  THR29       0.2484
     16  O          7.7750   12.2520   10.6340 O.2    29  THR29      -0.2729
     17  CB        10.8380   12.4260    9.2760 C.3    29  THR29       0.1807
     18  OG1        9.9340   12.3250    8.1690 O.3    29  THR29      -0.2208
     19  CG2       12.0560   11.5380    8.9390 C.3    29  THR29       0.0379
     20  N          9.0100   14.0540   11.1660 N.am   30  PRO30      -0.2726
     21  CA         7.8290   14.8940   11.4260 C.3    30  PRO30       0.1402
     22  C          6.7900   14.9850   10.3280 C.2    30  PRO30       0.2269
     23  O          5.6060   15.1740   10.6820 O.2    30  PRO30      -0.2865
     24  CB         8.4360   16.2460   11.7550 C.3    30  PRO30       0.0296
     25  CG         9.7430   15.8600   12.3700 C.3    30  PRO30       0.0237
     26  CD        10.2500   14.7400   11.5740 C.3    30  PRO30       0.0939
     27  N          5.9710   12.5970    8.3230 N.3    32  ASN32      -0.1240
     28  CA         5.5850   11.2200    8.0480 C.3    32  ASN32       0.1653
     29  C          6.4040   10.5560    6.9490 C.2    32  ASN32       0.2266
     30  O          5.9380    9.7010    6.2170 O.2    32  ASN32      -0.2867
     31  CB         4.0840   11.1530    7.8130 C.3    32  ASN32       0.1155
     32  CG         3.3240   11.5040    9.0710 C.2    32  ASN32       0.2627
     33  OD1        3.6220   10.9550   10.1610 O.2    32  ASN32      -0.2716
     34  ND2        2.3730   12.4460    8.9670 N.am   32  ASN32      -0.0877
     35  N         17.9900    6.0020   12.2370 N.3    37  GLY37      -0.1210
     36  CA        18.4710    6.5310   13.4750 C.3    37  GLY37       0.1956
     37  C         18.9550    5.4170   14.4130 C.2    37  GLY37       0.2612
     38  O         19.1730    4.3050   13.9740 O.2    37  GLY37      -0.2717
     39  N         19.0840    5.7350   15.6940 N.am   38  TYR38      -0.1962
     40  CA        19.6640    4.8830   16.7260 C.3    38  TYR38       0.1771
     41  C         21.0320    4.3730   16.2970 C.2    38  TYR38       0.2619
     42  O         21.3540    3.2120   16.4400 O.2    38  TYR38      -0.2715
     43  CB        18.6850    3.7970   17.1970 C.3    38  TYR38       0.0574
     44  CG        17.4860    4.4330   17.8390 C.ar   38  TYR38      -0.0198
     45  CD1       16.3770    4.7610   17.0890 C.ar   38  TYR38      -0.0009
     46  CD2       17.4810    4.7790   19.2080 C.ar   38  TYR38      -0.0009
     47  CE1       15.2590    5.3890   17.6740 C.ar   38  TYR38       0.0417
     48  CE2       16.3550    5.4030   19.7970 C.ar   38  TYR38       0.0417
     49  CZ        15.2640    5.7040   19.0270 C.ar   38  TYR38       0.1957
     50  OH        14.1570    6.3370   19.6090 O.3    38  TYR38      -0.2866
     51  N         21.8160    5.2990   15.7550 N.am   39  ILE39      -0.1977
     52  CA        23.1240    4.9920   15.1510 C.3    39  ILE39       0.1596
     53  C         24.2070    5.2350   16.1740 C.2    39  ILE39       0.2287
     54  O         24.1200    6.1750   16.9560 O.2    39  ILE39      -0.2864
     55  CB        23.3520    5.8670   13.8880 C.3    39  ILE39       0.0276
     56  CG1       22.5520    5.3180   12.7080 C.3    39  ILE39       0.0022
     57  CG2       24.8460    5.9180   13.5200 C.3    39  ILE39       0.0022
     58  CD1       22.3860    6.3310   11.6100 C.3    39  ILE39       0.0001
     59  N         16.5250   16.1010   17.4680 N.3    94  TRP94      -0.1227
     60  CA        16.5160   14.8450   16.7020 C.3    94  TRP94       0.1737
     61  C         15.4940   14.8750   15.5930 C.2    94  TRP94       0.2595
     62  O         15.5140   14.0320   14.7020 O.2    94  TRP94      -0.2718
     63  CB        16.2380   13.6580   17.6410 C.3    94  TRP94       0.0564
     64  CG        17.3150   13.5080   18.6900 C.ar   94  TRP94       0.0003
     65  CD1       17.1750   13.7160   20.0570 C.ar   94  TRP94       0.0946
     66  CD2       18.6870   13.1790   18.4840 C.ar   94  TRP94       0.0152
     67  NE1       18.3760   13.5170   20.6910 N.ar   94  TRP94      -0.2442
     68  CE2       19.3270   13.1760   19.7620 C.ar   94  TRP94       0.0810
     69  CE3       19.4470   12.8260   17.3680 C.ar   94  TRP94       0.0012
     70  CZ2       20.6980   12.8530   19.9190 C.ar   94  TRP94       0.0191
     71  CZ3       20.7780   12.5300   17.5150 C.ar   94  TRP94       0.0001
     72  CH2       21.4060   12.5430   18.7730 C.ar   94  TRP94       0.0015
     73  N         14.5900   15.8640   15.6470 N.am   95  ASN95      -0.1974
     74  CA        13.5470   16.0170   14.6400 C.3    95  ASN95       0.1688
     75  C         13.6390   17.3040   13.7860 C.2    95  ASN95       0.2292
     76  O         12.7470   17.6030   13.0400 O.2    95  ASN95      -0.2864
     77  CB        12.1910   15.8920   15.2940 C.3    95  ASN95       0.1181
     78  CG        11.9970   14.5390   15.9750 C.2    95  ASN95       0.2629
     79  OD1       11.7970   14.4620   17.1920 O.2    95  ASN95      -0.2716
     80  ND2       12.0540   13.4830   15.1990 N.am   95  ASN95      -0.0877
     81  N         25.7690    9.4840   16.8870 N.3   120  PRO120     -0.2102
     82  CA        24.3370    9.5370   16.5880 C.3   120  PRO120      0.1504
     83  C         23.9590   10.6970   15.6280 C.2   120  PRO120      0.2576
     84  O         24.4540   11.8020   15.7560 O.2   120  PRO120     -0.2718
     85  CB        23.6750    9.7450   17.9690 C.3   120  PRO120      0.0282
     86  CG        24.7240   10.2840   18.8080 C.3   120  PRO120      0.0208
     87  CD        26.0330    9.7300   18.3230 C.3   120  PRO120      0.0893
     88  N         23.0980   10.3620   14.6740 N.am  121  VAL121     -0.1966
     89  CA        22.5360   11.2970   13.6990 C.3   121  VAL121      0.1727
     90  C         21.3440   10.5810   13.0950 C.2   121  VAL121      0.2616
     91  O         21.3470    9.3770   12.9440 O.2   121  VAL121     -0.2715
     92  CB        23.5880   11.7340   12.6480 C.3   121  VAL121      0.0290
     93  CG1       24.2170   10.5210   12.0000 C.3   121  VAL121      0.0023
     94  CG2       23.0050   12.6900   11.5780 C.3   121  VAL121      0.0023
     95  N         20.3020   11.3250   12.7710 N.am  122  ASN122     -0.1972
     96  CA        19.2130   10.8060   12.0250 C.3   122  ASN122      0.1688
     97  C         19.3840   11.2500   10.5600 C.2   122  ASN122      0.2292
     98  O         19.6670   12.4290   10.2660 O.2   122  ASN122     -0.2864
     99  CB        17.9010   11.3290   12.6200 C.3   122  ASN122      0.1181
    100  CG        17.5880   10.7350   13.9830 C.2   122  ASN122      0.2629
    101  OD1       18.1170    9.6830   14.3140 O.2   122  ASN122     -0.2716
    102  ND2       16.6930   11.4030   14.7790 N.am  122  ASN122     -0.0877
@<TRIPOS>BOND
     1    30    29    2
     2    29    28    1
     3    31    28    1
     4    31    32    1
     5    28    27    1
     6    18    17    1
     7    19    17    1
     8    34    32   am
     9    32    33    2
    10    17    14    1
    11     4     3    2
    12    98    97    2
    13    22    23    2
    14    22    21    1
    15    13    14    1
    16    13    11   am
    17    97    96    1
    18    14    15    1
    19    16    15    2
    20    15    20   am
    21    20    21    1
    22    20    26    1
    23    10    11    1
    24    10     9    1
    25     3     9   am
    26     3     2    1
    27    11    12    2
    28     1     2    1
    29    21    24    1
    30    26    25    1
    31    94    92    1
    32    58    56    1
    33    24    25    1
    34    93    92    1
    35    96    99    1
    36    96    95    1
    37     6     8    1
    38     6     5    1
    39     2     5    1
    40    35    36    1
    41    99   100    1
    42    92    89    1
    43    56    55    1
    44    95    90   am
    45    91    90    2
    46     5     7    1
    47    76    75    2
    48    90    89    1
    49    36    37    1
    50    57    55    1
    51    89    88    1
    52    75    74    1
    53    55    52    1
    54    38    37    2
    55   100   101    2
    56   100   102   am
    57    37    39   am
    58    74    77    1
    59    74    73    1
    60    88    83   am
    61    62    61    2
    62    52    51    1
    63    52    53    1
    64    80    78   am
    65    77    78    1
    66    61    73   am
    67    61    60    1
    68    83    84    2
    69    83    82    1
    70    39    40    1
    71    51    41   am
    72    78    79    2
    73    53    54    2
    74    41    42    2
    75    41    40    1
    76    82    81    1
    77    82    85    1
    78    60    59    1
    79    60    63    1
    80    40    43    1
    81    81    87    1
    82    45    47   ar
    83    45    44   ar
    84    43    44    1
    85    69    71   ar
    86    69    66   ar
    87    71    72   ar
    88    63    64    1
    89    47    49   ar
    90    44    46   ar
    91    85    86    1
    92    87    86    1
    93    66    64   ar
    94    66    68   ar
    95    64    65   ar
    96    72    70   ar
    97    49    50    1
    98    49    48   ar
    99    46    48   ar
   100    68    70   ar
   101    68    67   ar
   102    65    67   ar
