@<TRIPOS>MOLECULE
tmp/1uy4A00.pdb
 109 108 0 0 0
SMALL
GASTEIGER

@<TRIPOS>ATOM
      1  N         13.3080    5.0380   11.4030 N.3    27  ILE27      -0.1231
      2  CA        12.5460    5.9810   12.2050 C.3    27  ILE27       0.1692
      3  C         11.5880    6.7730   11.3040 C.2    27  ILE27       0.2593
      4  O         11.7190    6.7880   10.0790 O.2    27  ILE27      -0.2718
      5  CB        13.4780    6.9510   12.9420 C.3    27  ILE27       0.0266
      6  CG1       14.4190    7.7030   11.9600 C.3    27  ILE27       0.0019
      7  CG2       14.3060    6.2010   14.0410 C.3    27  ILE27       0.0020
      8  CD1       14.9780    8.9380   12.5230 C.3    27  ILE27       0.0001
      9  N         10.5920    7.3910   11.9280 N.am   28  GLY28      -0.1942
     10  CA         9.7350    8.3540   11.2560 C.3    28  GLY28       0.2014
     11  C         10.2900    9.7740   11.3900 C.2    28  GLY28       0.2640
     12  O         11.1050   10.0860   12.2440 O.2    28  GLY28      -0.2714
     13  N          9.8310   10.6460   10.4980 N.am   29  THR29      -0.1937
     14  CA        10.1930   12.0660   10.5260 C.3    29  THR29       0.2013
     15  C          8.9050   12.8830   10.7100 C.2    29  THR29       0.2484
     16  O          7.8170   12.3540   10.5470 O.2    29  THR29      -0.2729
     17  CB        10.8780   12.5130    9.1930 C.3    29  THR29       0.1807
     18  OG1        9.9530   12.3630    8.1040 O.3    29  THR29      -0.2208
     19  CG2       12.0960   11.6480    8.8760 C.3    29  THR29       0.0379
     20  N          9.0270   14.1590   11.0830 N.am   30  PRO30      -0.2726
     21  CA         7.8270   14.9700   11.3280 C.3    30  PRO30       0.1402
     22  C          6.7730   15.0530   10.2150 C.2    30  PRO30       0.2269
     23  O          5.5560   15.1940   10.5180 O.2    30  PRO30      -0.2865
     24  CB         8.4020   16.3410   11.7060 C.3    30  PRO30       0.0296
     25  CG         9.7300   16.0230   12.3340 C.3    30  PRO30       0.0237
     26  CD        10.2550   14.8780   11.4850 C.3    30  PRO30       0.0939
     27  N          6.0040   12.6780    8.1580 N.3    32  ASN32      -0.1240
     28  CA         5.6270   11.2960    7.8720 C.3    32  ASN32       0.1653
     29  C          6.4220   10.6610    6.7830 C.2    32  ASN32       0.2266
     30  O          5.9520    9.8100    6.0420 O.2    32  ASN32      -0.2867
     31  CB         4.0990   11.2180    7.6990 C.3    32  ASN32       0.1155
     32  CG         3.4020   11.5950    8.9970 C.2    32  ASN32       0.2627
     33  OD1        3.8860   11.2480   10.1060 O.2    32  ASN32      -0.2716
     34  ND2        2.3270   12.3630    8.8950 N.am   32  ASN32      -0.0877
     35  N         18.0330    6.0820   12.3280 N.3    37  GLY37      -0.1210
     36  CA        18.4870    6.6390   13.5590 C.3    37  GLY37       0.1956
     37  C         18.9820    5.5320   14.4920 C.2    37  GLY37       0.2612
     38  O         19.1930    4.4180   14.0550 O.2    37  GLY37      -0.2717
     39  N         19.1430    5.8770   15.7560 N.am   38  TYR38      -0.1962
     40  CA        19.7180    5.0070   16.8100 C.3    38  TYR38       0.1771
     41  C         21.0630    4.4810   16.3650 C.2    38  TYR38       0.2619
     42  O         21.3860    3.3120   16.5690 O.2    38  TYR38      -0.2715
     43  CB        18.7260    3.9230   17.2120 C.3    38  TYR38       0.0574
     44  CG        17.5030    4.5750   17.8480 C.ar   38  TYR38      -0.0198
     45  CD1       16.3960    4.8720   17.0830 C.ar   38  TYR38      -0.0009
     46  CD2       17.4970    4.9660   19.2050 C.ar   38  TYR38      -0.0009
     47  CE1       15.2850    5.5190   17.6350 C.ar   38  TYR38       0.0417
     48  CE2       16.3650    5.6110   19.7860 C.ar   38  TYR38       0.0417
     49  CZ        15.2800    5.8810   18.9710 C.ar   38  TYR38       0.1957
     50  OH        14.1720    6.5250   19.4890 O.3    38  TYR38      -0.2866
     51  N         21.8090    5.3830   15.7000 N.am   39  ILE39      -0.1977
     52  CA        23.1450    5.0990   15.1730 C.3    39  ILE39       0.1596
     53  C         24.2110    5.3550   16.2300 C.2    39  ILE39       0.2287
     54  O         24.1250    6.2970   16.9920 O.2    39  ILE39      -0.2864
     55  CB        23.3880    5.9340   13.8730 C.3    39  ILE39       0.0276
     56  CG1       22.5290    5.3930   12.7240 C.3    39  ILE39       0.0022
     57  CG2       24.8570    5.9890   13.5320 C.3    39  ILE39       0.0022
     58  CD1       22.4610    6.3630   11.5400 C.3    39  ILE39       0.0001
     59  N         24.1330   16.4470   18.5530 N.3    67  VAL67      -0.1245
     60  CA        25.5540   16.3190   18.8620 C.3    67  VAL67       0.1561
     61  C         26.3500   16.5940   17.5950 C.2    67  VAL67       0.2260
     62  O         25.9530   16.1680   16.4890 O.2    67  VAL67      -0.2867
     63  CB        25.8380   14.8680   19.2630 C.3    67  VAL67       0.0252
     64  CG1       27.2970   14.6820   19.5760 C.3    67  VAL67       0.0019
     65  CG2       25.0060   14.4590   20.4610 C.3    67  VAL67       0.0019
     66  N         16.5470   16.2550   17.4910 N.3    94  TRP94      -0.1227
     67  CA        16.5400   14.9980   16.7320 C.3    94  TRP94       0.1737
     68  C         15.5350   14.9910   15.6290 C.2    94  TRP94       0.2595
     69  O         15.5550   14.1190   14.7480 O.2    94  TRP94      -0.2718
     70  CB        16.3040   13.8000   17.6660 C.3    94  TRP94       0.0564
     71  CG        17.3780   13.6760   18.6920 C.ar   94  TRP94       0.0003
     72  CD1       17.2570   13.8850   20.0440 C.ar   94  TRP94       0.0946
     73  CD2       18.7470   13.3130   18.4650 C.ar   94  TRP94       0.0152
     74  NE1       18.4700   13.7050   20.6620 N.ar   94  TRP94      -0.2442
     75  CE2       19.4040   13.3330   19.7260 C.ar   94  TRP94       0.0810
     76  CE3       19.4840   12.9620   17.3250 C.ar   94  TRP94       0.0012
     77  CZ2       20.7750   13.0060   19.8740 C.ar   94  TRP94       0.0191
     78  CZ3       20.8180   12.6560   17.4560 C.ar   94  TRP94       0.0001
     79  CH2       21.4720   12.7120   18.7340 C.ar   94  TRP94       0.0015
     80  N         14.6320   15.9820   15.6510 N.am   95  ASN95      -0.1974
     81  CA        13.5970   16.1070   14.5970 C.3    95  ASN95       0.1688
     82  C         13.6680   17.3830   13.7660 C.2    95  ASN95       0.2292
     83  O         12.7590   17.6430   12.9830 O.2    95  ASN95      -0.2864
     84  CB        12.2190   15.9840   15.2400 C.3    95  ASN95       0.1181
     85  CG        12.0130   14.6210   15.8880 C.2    95  ASN95       0.2629
     86  OD1       11.7470   14.5220   17.0770 O.2    95  ASN95      -0.2716
     87  ND2       12.1290   13.5860   15.1070 N.am   95  ASN95      -0.0877
     88  N         25.7970    9.6140   16.9250 N.3   120  PRO120     -0.2102
     89  CA        24.3760    9.6560   16.6200 C.3   120  PRO120      0.1504
     90  C         23.9830   10.8320   15.6830 C.2   120  PRO120      0.2576
     91  O         24.4270   11.9650   15.8920 O.2   120  PRO120     -0.2718
     92  CB        23.7170    9.8650   18.0160 C.3   120  PRO120      0.0282
     93  CG        24.7520   10.4800   18.8100 C.3   120  PRO120      0.0208
     94  CD        26.0420    9.8360   18.3660 C.3   120  PRO120      0.0893
     95  N         23.1660   10.4910   14.7010 N.am  121  VAL121     -0.1966
     96  CA        22.5750   11.4060   13.7250 C.3   121  VAL121      0.1727
     97  C         21.4050   10.6870   13.1080 C.2   121  VAL121      0.2616
     98  O         21.4220    9.4860   12.9320 O.2   121  VAL121     -0.2715
     99  CB        23.5950   11.8690   12.6620 C.3   121  VAL121      0.0290
    100  CG1       24.2310   10.6670   12.0080 C.3   121  VAL121      0.0023
    101  CG2       22.9680   12.8410   11.6110 C.3   121  VAL121      0.0023
    102  N         20.3380   11.4150   12.8380 N.am  122  ASN122     -0.1972
    103  CA        19.2600   10.9030   12.0720 C.3   122  ASN122      0.1688
    104  C         19.4060   11.3540   10.6170 C.2   122  ASN122      0.2292
    105  O         19.6730   12.5280   10.3410 O.2   122  ASN122     -0.2864
    106  CB        17.9430   11.4250   12.6510 C.3   122  ASN122      0.1181
    107  CG        17.6140   10.8200   13.9770 C.2   122  ASN122      0.2629
    108  OD1       18.1590    9.7590   14.3380 O.2   122  ASN122     -0.2716
    109  ND2       16.6910   11.4690   14.7230 N.am  122  ASN122     -0.0877
@<TRIPOS>BOND
     1    30    29    2
     2    29    28    1
     3    31    28    1
     4    31    32    1
     5    28    27    1
     6    18    17    1
     7    19    17    1
     8    34    32   am
     9    32    33    2
    10    17    14    1
    11     4     3    2
    12    22    23    2
    13    22    21    1
    14   105   104    2
    15    13    14    1
    16    13    11   am
    17    14    15    1
    18    16    15    2
    19   104   103    1
    20    15    20   am
    21    20    21    1
    22    20    26    1
    23    10    11    1
    24    10     9    1
    25     3     9   am
    26     3     2    1
    27    21    24    1
    28    11    12    2
    29     1     2    1
    30    26    25    1
    31    58    56    1
    32   101    99    1
    33    24    25    1
    34     6     8    1
    35     6     5    1
    36   100    99    1
    37   103   106    1
    38   103   102    1
    39     2     5    1
    40    35    36    1
    41   106   107    1
    42    99    96    1
    43    56    55    1
    44   102    97   am
    45    98    97    2
    46     5     7    1
    47    83    82    2
    48    97    96    1
    49    57    55    1
    50    36    37    1
    51    96    95    1
    52    82    81    1
    53    55    52    1
    54   107   108    2
    55   107   109   am
    56    38    37    2
    57    37    39   am
    58    81    84    1
    59    81    80    1
    60    95    90   am
    61    69    68    2
    62    87    85   am
    63    52    51    1
    64    52    53    1
    65    84    85    1
    66    68    80   am
    67    68    67    1
    68    90    91    2
    69    90    89    1
    70    51    41   am
    71    39    40    1
    72    85    86    2
    73    53    54    2
    74    41    42    2
    75    41    40    1
    76    62    61    2
    77    89    88    1
    78    89    92    1
    79    67    66    1
    80    67    70    1
    81    40    43    1
    82    88    94    1
    83    45    47   ar
    84    45    44   ar
    85    43    44    1
    86    76    78   ar
    87    76    73   ar
    88    78    79   ar
    89    61    60    1
    90    47    49   ar
    91    70    71    1
    92    44    46   ar
    93    92    93    1
    94    94    93    1
    95    73    71   ar
    96    73    75   ar
    97    59    60    1
    98    71    72   ar
    99    79    77   ar
   100    60    63    1
   101    49    50    1
   102    49    48   ar
   103    46    48   ar
   104    63    64    1
   105    63    65    1
   106    75    77   ar
   107    75    74   ar
   108    72    74   ar
