@<TRIPOS>MOLECULE
tmp/1uy6A00.pdb
 176 166 0 0 0
SMALL
GASTEIGER

@<TRIPOS>ATOM
      1  N         16.3250   18.8260   25.9530 N.3     6  PHE6       -0.1241
      2  CA        16.1590   17.4570   25.4350 C.3     6  PHE6        0.1605
      3  C         17.4840   16.7130   25.4340 C.2     6  PHE6        0.2264
      4  O         18.5380   17.2880   25.2100 O.2     6  PHE6       -0.2867
      5  CB        15.6860   17.4650   23.9780 C.3     6  PHE6        0.0534
      6  CG        14.2770   17.9340   23.7900 C.ar    6  PHE6       -0.0203
      7  CD1       13.1960   17.1310   24.1540 C.ar    6  PHE6       -0.0042
      8  CD2       14.0260   19.2220   23.2800 C.ar    6  PHE6       -0.0042
      9  CE1       11.8540   17.6050   24.0050 C.ar    6  PHE6       -0.0003
     10  CE2       12.7000   19.6590   23.0580 C.ar    6  PHE6       -0.0003
     11  CZ        11.6140   18.8550   23.4170 C.ar    6  PHE6       -0.0000
     12  N         -0.9640   11.4440   16.2590 N.3    32  LEU32      -0.1245
     13  CA        -1.4520   12.0190   17.5140 C.3    32  LEU32       0.1561
     14  C         -2.7580   11.3280   17.9380 C.2    32  LEU32       0.2260
     15  O         -2.9710   11.0610   19.1390 O.2    32  LEU32      -0.2867
     16  CB        -1.6220   13.5640   17.4160 C.3    32  LEU32       0.0270
     17  CG        -0.3450   14.3330   17.0680 C.3    32  LEU32       0.0019
     18  CD1       -0.6670   15.8230   16.9330 C.3    32  LEU32       0.0001
     19  CD2        0.8070   14.1690   18.1220 C.3    32  LEU32       0.0001
     20  N         -1.7830    8.0630   19.4160 N.3    35  ASN35      -0.1225
     21  CA        -1.3370    8.2270   20.8190 C.3    35  ASN35       0.1785
     22  C         -2.5140    8.3860   21.7730 C.2    35  ASN35       0.2597
     23  O         -2.5150    7.7820   22.8470 O.2    35  ASN35      -0.2718
     24  CB        -0.4140    9.4380   20.9520 C.3    35  ASN35       0.1169
     25  CG         0.9210    9.2290   20.2250 C.2    35  ASN35       0.2627
     26  OD1        1.3100    8.0850   19.8840 O.2    35  ASN35      -0.2716
     27  ND2        1.6350   10.3260   20.0130 N.am   35  ASN35      -0.0877
     28  N         -3.5330    9.1570   21.3740 N.am   36  SER36      -0.1952
     29  CA        -4.7370    9.3410   22.1990 C.3    36  SER36       0.1924
     30  C         -5.4610    7.9980   22.3930 C.2    36  SER36       0.2314
     31  O         -5.8620    7.6600   23.4920 O.2    36  SER36      -0.2863
     32  CB        -5.6830   10.3170   21.4990 C.3    36  SER36       0.2116
     33  OG        -5.1450   11.6230   21.6090 O.3    36  SER36      -0.2180
     34  N         -4.2200    4.9240   22.2000 N.3    38  ASP38      -0.1225
     35  CA        -3.4120    4.1240   23.1370 C.3    38  ASP38       0.1805
     36  C         -3.6370    4.5640   24.5840 C.2    38  ASP38       0.2597
     37  O         -3.7270    3.7260   25.5130 O.2    38  ASP38      -0.2718
     38  CB        -1.9270    4.2840   22.8350 C.3    38  ASP38       0.1424
     39  CG        -1.4800    3.6170   21.4820 C.2    38  ASP38       0.3668
     40  OD1       -2.2560    2.8800   20.8570 O.co2  38  ASP38      -0.2456
     41  OD2       -0.3450    3.8120   20.9870 O.co2  38  ASP38      -0.2456
     42  N         -3.7400    5.8820   24.7970 N.am   39  ALA39      -0.1979
     43  CA        -3.9300    6.4200   26.1580 C.3    39  ALA39       0.1597
     44  C         -5.3400    6.0620   26.6960 C.2    39  ALA39       0.2287
     45  O         -5.5520    5.8410   27.9250 O.2    39  ALA39      -0.2864
     46  CB        -3.7630    7.9090   26.1160 C.3    39  ALA39       0.0319
     47  N         -7.9650   14.2750   24.3320 N.3    77  ASP77      -0.1239
     48  CA        -8.4400   12.9700   24.7090 C.3    77  ASP77       0.1674
     49  C         -8.7350   12.9250   26.2290 C.2    77  ASP77       0.2266
     50  O         -8.2300   13.7570   27.0140 O.2    77  ASP77      -0.2867
     51  CB        -7.4900   11.8470   24.2420 C.3    77  ASP77       0.1410
     52  CG        -6.1760   11.8240   24.9980 C.2    77  ASP77       0.3668
     53  OD1       -6.1390   11.5320   26.2430 O.co2  77  ASP77      -0.2456
     54  OD2       -5.1050   12.1220   24.4200 O.co2  77  ASP77      -0.2456
     55  N         -5.4190    8.1770   29.7000 N.3    80  ILE80      -0.1231
     56  CA        -4.6930    8.0790   30.9850 C.3    80  ILE80       0.1692
     57  C         -3.9470    9.3470   31.4390 C.2    80  ILE80       0.2593
     58  O         -3.7100    9.5500   32.6430 O.2    80  ILE80      -0.2718
     59  CB        -3.7540    6.8620   30.9730 C.3    80  ILE80       0.0266
     60  CG1       -3.2950    6.5500   32.4240 C.3    80  ILE80       0.0019
     61  CG2       -2.5680    7.0580   29.9670 C.3    80  ILE80       0.0020
     62  CD1       -3.3260    5.0830   32.7650 C.3    80  ILE80       0.0001
     63  N         -3.5620   10.2010   30.4900 N.am   81  GLY81      -0.1942
     64  CA        -2.8340   11.4050   30.8790 C.3    81  GLY81       0.2014
     65  C         -1.3710   11.0550   31.1750 C.2    81  GLY81       0.2638
     66  O         -0.9970    9.8630   31.1430 O.2    81  GLY81      -0.2714
     67  N         -0.5530   12.0710   31.4990 N.am   82  MET82      -0.1976
     68  CA         0.8870   11.8830   31.7260 C.3    82  MET82       0.1605
     69  C          1.2880   12.5470   33.0420 C.2    82  MET82       0.2287
     70  O          0.8050   13.6300   33.3390 O.2    82  MET82      -0.2864
     71  CB         1.7570   12.4760   30.6090 C.3    82  MET82       0.0413
     72  CG         1.7000   11.6420   29.3040 C.3    82  MET82       0.0598
     73  SD         2.4040   12.4870   27.8770 S.3    82  MET82      -0.1393
     74  CE         0.9240   13.4050   27.4300 C.3    82  MET82       0.0692
     75  N          6.7320   13.4760   31.7040 N.3    87  LEU87      -0.1245
     76  CA         6.9970   14.6790   30.8900 C.3    87  LEU87       0.1561
     77  C          8.4720   15.0550   30.9240 C.2    87  LEU87       0.2260
     78  O          9.0500   15.4010   29.9140 O.2    87  LEU87      -0.2867
     79  CB         6.1280   15.8560   31.4000 C.3    87  LEU87       0.0270
     80  CG         4.6510   15.7650   31.0420 C.3    87  LEU87       0.0019
     81  CD1        3.9280   16.9630   31.7370 C.3    87  LEU87       0.0001
     82  CD2        4.4470   15.7860   29.4980 C.3    87  LEU87       0.0001
     83  N          9.4370    9.5100   29.3510 N.3    91  LEU91      -0.1231
     84  CA         9.1540    9.3850   27.9130 C.3    91  LEU91       0.1693
     85  C         10.4200    9.6120   27.0700 C.2    91  LEU91       0.2592
     86  O         10.6710    8.9150   26.0850 O.2    91  LEU91      -0.2718
     87  CB         8.0190   10.3110   27.4750 C.3    91  LEU91       0.0284
     88  CG         6.6840   10.0830   28.1990 C.3    91  LEU91       0.0019
     89  CD1        5.7320   11.2150   27.8150 C.3    91  LEU91       0.0001
     90  CD2        6.1340    8.6920   27.8920 C.3    91  LEU91       0.0001
     91  N         11.2120   10.5890   27.4700 N.am   92  GLY92      -0.1957
     92  CA        12.5180   10.8510   26.8610 C.3    92  GLY92       0.1869
     93  C         13.4540    9.6600   26.9250 C.2    92  GLY92       0.2309
     94  O         14.1110    9.3610   25.9520 O.2    92  GLY92      -0.2863
     95  N         12.6100    6.3640   27.2860 N.3    94  ILE94      -0.1231
     96  CA        12.1340    5.3280   26.3490 C.3    94  ILE94       0.1692
     97  C         12.3930    5.7400   24.8900 C.2    94  ILE94       0.2591
     98  O         12.7650    4.9060   24.0640 O.2    94  ILE94      -0.2718
     99  CB        10.6220    5.0140   26.5530 C.3    94  ILE94       0.0266
    100  CG1       10.3000    4.6970   28.0050 C.3    94  ILE94       0.0019
    101  CG2       10.1570    3.8750   25.6800 C.3    94  ILE94       0.0020
    102  CD1        8.8310    5.0740   28.2980 C.3    94  ILE94       0.0001
    103  N         12.1920    7.0230   24.5930 N.am   95  ALA95      -0.1980
    104  CA        12.2750    7.5530   23.2310 C.3    95  ALA95       0.1597
    105  C         13.6950    7.5550   22.5920 C.2    95  ALA95       0.2287
    106  O         13.8350    7.7910   21.3870 O.2    95  ALA95      -0.2864
    107  CB        11.7220    8.9580   23.1850 C.3    95  ALA95       0.0319
    108  N          7.9640    4.5590   18.0010 N.3   119  GLY119     -0.1210
    109  CA         7.4940    5.1090   19.2610 C.3   119  GLY119      0.1956
    110  C          7.7340    6.5910   19.4650 C.2   119  GLY119      0.2611
    111  O          7.5700    7.1080   20.5570 O.2   119  GLY119     -0.2717
    112  N          8.0560    7.3170   18.3960 N.am  120  VAL120     -0.1979
    113  CA         8.3190    8.7520   18.5040 C.3   120  VAL120      0.1595
    114  C          7.4160    9.5910   17.5650 C.2   120  VAL120      0.2287
    115  O          7.7650   10.7160   17.1970 O.2   120  VAL120     -0.2864
    116  CB         9.8340    9.0400   18.2590 C.3   120  VAL120      0.0276
    117  CG1       10.6040    8.5090   19.4250 C.3   120  VAL120      0.0022
    118  CG2       10.3540    8.4170   16.9250 C.3   120  VAL120      0.0022
    119  N          4.8520   11.2430   18.1980 N.3   122  PHE122     -0.1227
    120  CA         4.6000   12.5630   18.7870 C.3   122  PHE122      0.1736
    121  C          5.3640   13.6860   18.0810 C.2   122  PHE122      0.2595
    122  O          4.7870   14.7410   17.7720 O.2   122  PHE122     -0.2718
    123  CB         4.9070   12.5790   20.3060 C.3   122  PHE122      0.0547
    124  CG         4.7540   13.9490   20.9250 C.ar  122  PHE122     -0.0202
    125  CD1        3.4990   14.4730   21.1420 C.ar  122  PHE122     -0.0042
    126  CD2        5.8960   14.7090   21.2970 C.ar  122  PHE122     -0.0042
    127  CE1        3.3410   15.7440   21.7120 C.ar  122  PHE122     -0.0003
    128  CE2        5.7410   15.9770   21.8430 C.ar  122  PHE122     -0.0003
    129  CZ         4.4520   16.4720   22.0630 C.ar  122  PHE122     -0.0000
    130  N          6.6380   13.4550   17.7750 N.am  123  TYR123     -0.1976
    131  CA         7.4900   14.5020   17.1840 C.3   123  TYR123      0.1639
    132  C          7.1050   14.8810   15.7720 C.2   123  TYR123      0.2290
    133  O          7.4980   15.9320   15.2680 O.2   123  TYR123     -0.2864
    134  CB         8.9700   14.1480   17.3110 C.3   123  TYR123      0.0560
    135  CG         9.3570   14.1380   18.8010 C.ar  123  TYR123     -0.0198
    136  CD1        9.4240   15.3510   19.5160 C.ar  123  TYR123     -0.0009
    137  CD2        9.5840   12.9630   19.4840 C.ar  123  TYR123     -0.0009
    138  CE1        9.7390   15.3810   20.8510 C.ar  123  TYR123      0.0417
    139  CE2        9.9040   12.9820   20.8620 C.ar  123  TYR123      0.0417
    140  CZ         9.9860   14.1980   21.5060 C.ar  123  TYR123      0.1957
    141  OH        10.2940   14.2530   22.8280 O.3   123  TYR123     -0.2866
    142  N          1.3330   20.9720   25.5520 N.3   134  VAL134     -0.1245
    143  CA         0.6050   19.7810   25.9310 C.3   134  VAL134      0.1561
    144  C          0.0880   19.9990   27.3150 C.2   134  VAL134      0.2260
    145  O          0.9040   20.2010   28.2380 O.2   134  VAL134     -0.2867
    146  CB         1.5130   18.4820   25.8420 C.3   134  VAL134      0.0252
    147  CG1        0.7340   17.2170   26.2970 C.3   134  VAL134      0.0019
    148  CG2        2.0460   18.3310   24.4000 C.3   134  VAL134      0.0019
    149  N          3.3010   21.2330   29.3620 N.3   146  TRP146     -0.1241
    150  CA         4.5760   21.0480   28.7160 C.3   146  TRP146      0.1605
    151  C          4.5600   21.9030   27.4760 C.2   146  TRP146      0.2264
    152  O          3.5100   22.0500   26.8020 O.2   146  TRP146     -0.2867
    153  CB         4.6840   19.5140   28.3240 C.3   146  TRP146      0.0550
    154  CG         5.9050   19.0680   27.5480 C.ar  146  TRP146      0.0003
    155  CD1        6.9980   18.3750   28.0430 C.ar  146  TRP146      0.0946
    156  CD2        6.1230   19.1750   26.1250 C.ar  146  TRP146      0.0152
    157  NE1        7.8890   18.1290   27.0220 N.ar  146  TRP146     -0.2442
    158  CE2        7.3580   18.5680   25.8360 C.ar  146  TRP146      0.0810
    159  CE3        5.3660   19.7020   25.0550 C.ar  146  TRP146      0.0012
    160  CZ2        7.8800   18.5020   24.5380 C.ar  146  TRP146      0.0191
    161  CZ3        5.9100   19.6640   23.7660 C.ar  146  TRP146      0.0001
    162  CH2        7.1420   19.0880   23.5260 C.ar  146  TRP146      0.0015
    163  N         -5.3310   14.4300   28.1050 N.3   168  THR168     -0.1218
    164  CA        -4.2750   15.2060   27.4470 C.3   168  THR168      0.1862
    165  C         -4.8430   16.0930   26.3350 C.2   168  THR168      0.2287
    166  O         -5.6980   15.6640   25.5580 O.2   168  THR168     -0.2866
    167  CB        -3.2630   14.2320   26.8410 C.3   168  THR168      0.1770
    168  OG1       -2.7060   13.4110   27.8640 O.3   168  THR168     -0.2211
    169  CG2       -2.1080   14.9900   26.1790 C.3   168  THR168      0.0375
    170  N         -3.2070   18.2050   23.2020 N.3   170  VAL170     -0.1245
    171  CA        -2.0070   18.5680   22.4250 C.3   170  VAL170      0.1561
    172  C         -2.4050   19.7490   21.5130 C.2   170  VAL170      0.2260
    173  O         -3.2430   19.6120   20.5970 O.2   170  VAL170     -0.2867
    174  CB        -1.4950   17.4050   21.5690 C.3   170  VAL170      0.0252
    175  CG1       -0.2920   17.8600   20.6520 C.3   170  VAL170      0.0019
    176  CG2       -1.1340   16.1610   22.4680 C.3   170  VAL170      0.0019
@<TRIPOS>BOND
     1   133   132    2
     2   132   131    1
     3    12    13    1
     4   118   116    1
     5    18    17    1
     6    17    16    1
     7    17    19    1
     8   131   134    1
     9   131   130    1
    10   115   114    2
    11   134   135    1
    12    16    13    1
    13    13    14    1
    14   114   113    1
    15   122   121    2
    16   130   121   am
    17    14    15    2
    18   108   109    1
    19   121   120    1
    20   119   120    1
    21   116   113    1
    22   116   117    1
    23   112   113    1
    24   112   110   am
    25   120   123    1
    26   135   137   ar
    27   135   136   ar
    28   109   110    1
    29    20    21    1
    30   110   111    2
    31   137   139   ar
    32   136   138   ar
    33    26    25    2
    34    27    25   am
    35    25    24    1
    36   123   124    1
    37   173   172    2
    38   175   174    1
    39    21    24    1
    40    21    22    1
    41   138   140   ar
    42    40    39   ar
    43   139   140   ar
    44   124   125   ar
    45   124   126   ar
    46    41    39   ar
    47   125   127   ar
    48   126   128   ar
    49    28    22   am
    50    28    29    1
    51   106   105    2
    52    39    38    1
    53    32    33    1
    54    32    29    1
    55   140   141    1
    56   172   171    1
    57   174   171    1
    58   174   176    1
    59   127   129   ar
    60    22    23    2
    61   128   129   ar
    62    29    30    1
    63    34    35    1
    64    30    31    2
    65   171   170    1
    66   105   104    1
    67    38    35    1
    68    10     8   ar
    69    10    11   ar
    70    35    36    1
    71   107   104    1
    72   104   103    1
    73     8     6   ar
    74    11     9   ar
    75   162   161   ar
    76   162   160   ar
    77   161   159   ar
    78     6     5    1
    79     6     7   ar
    80     5     2    1
    81     9     7   ar
    82    98    97    2
    83    51    48    1
    84    51    52    1
    85    47    48    1
    86   148   146    1
    87    54    52   ar
    88   160   158   ar
    89    36    42   am
    90    36    37    2
    91   103    97   am
    92    48    49    1
    93    42    43    1
    94    97    96    1
    95    52    53   ar
    96   159   156   ar
    97     4     3    2
    98     3     2    1
    99     2     1    1
   100   142   143    1
   101   166   165    2
   102   101    99    1
   103   158   156   ar
   104   158   157   ar
   105   146   143    1
   106   146   147    1
   107   143   144    1
   108    94    93    2
   109    86    85    2
   110    46    43    1
   111   156   154   ar
   112    43    44    1
   113   169   167    1
   114    49    50    2
   115   165   164    1
   116    96    99    1
   117    96    95    1
   118    99   100    1
   119    44    45    2
   120   152   151    2
   121   167   164    1
   122   167   168    1
   123    92    93    1
   124    92    91    1
   125   157   155   ar
   126    85    91   am
   127    85    84    1
   128   144   145    2
   129    74    73    1
   130   164   163    1
   131    87    84    1
   132    87    88    1
   133   151   150    1
   134   154   155   ar
   135   154   153    1
   136    89    88    1
   137    73    72    1
   138    90    88    1
   139    84    83    1
   140   100   102    1
   141   153   150    1
   142   150   149    1
   143    72    71    1
   144    82    80    1
   145    55    56    1
   146    78    77    2
   147    61    59    1
   148    63    64    1
   149    63    57   am
   150    71    68    1
   151    64    65    1
   152    76    77    1
   153    76    79    1
   154    76    75    1
   155    59    56    1
   156    59    60    1
   157    56    57    1
   158    80    79    1
   159    80    81    1
   160    66    65    2
   161    65    67   am
   162    57    58    2
   163    67    68    1
   164    68    69    1
   165    60    62    1
   166    69    70    2
