@<TRIPOS>MOLECULE
tmp/1uy7A00.pdb
 149 139 0 0 0
SMALL
GASTEIGER

@<TRIPOS>ATOM
      1  N         -0.8920   11.4380   16.1830 N.3    33  LEU33      -0.1245
      2  CA        -1.3890   11.9270   17.4770 C.3    33  LEU33       0.1561
      3  C         -2.6730   11.1620   17.8920 C.2    33  LEU33       0.2260
      4  O         -2.8820   10.8670   19.0860 O.2    33  LEU33      -0.2867
      5  CB        -1.6460   13.4640   17.4230 C.3    33  LEU33       0.0270
      6  CG        -0.3880   14.2830   17.0750 C.3    33  LEU33       0.0019
      7  CD1       -0.7280   15.8140   16.9410 C.3    33  LEU33       0.0001
      8  CD2        0.7420   14.0830   18.1180 C.3    33  LEU33       0.0001
      9  N         -1.6670    7.8820   19.2750 N.3    36  ASN36      -0.1225
     10  CA        -1.1890    8.0290   20.6680 C.3    36  ASN36       0.1785
     11  C         -2.3720    8.2030   21.6190 C.2    36  ASN36       0.2597
     12  O         -2.3500    7.6850   22.7340 O.2    36  ASN36      -0.2718
     13  CB        -0.2710    9.2680   20.8370 C.3    36  ASN36       0.1169
     14  CG         1.0920    9.0770   20.1220 C.2    36  ASN36       0.2627
     15  OD1        1.4960    7.9400   19.8290 O.2    36  ASN36      -0.2716
     16  ND2        1.7580   10.1770   19.8080 N.am   36  ASN36      -0.0877
     17  N         -3.3690    8.9840   21.2060 N.am   37  SER37      -0.1952
     18  CA        -4.5580    9.1580   22.0320 C.3    37  SER37       0.1924
     19  C         -5.2780    7.7810   22.2040 C.2    37  SER37       0.2314
     20  O         -5.7300    7.4280   23.2960 O.2    37  SER37      -0.2863
     21  CB        -5.5160   10.1140   21.3020 C.3    37  SER37       0.2116
     22  OG        -5.0300   11.4450   21.5470 O.3    37  SER37      -0.2180
     23  N         -4.0230    4.7040   22.0540 N.3    39  ASP39      -0.1225
     24  CA        -3.2980    3.9070   23.0260 C.3    39  ASP39       0.1805
     25  C         -3.5670    4.3300   24.4950 C.2    39  ASP39       0.2597
     26  O         -3.5460    3.5000   25.4160 O.2    39  ASP39      -0.2718
     27  CB        -1.7910    4.0620   22.7670 C.3    39  ASP39       0.1424
     28  CG        -1.3310    3.4640   21.4320 C.2    39  ASP39       0.3668
     29  OD1       -2.1230    2.7510   20.7710 O.co2  39  ASP39      -0.2456
     30  OD2       -0.1610    3.6550   21.0030 O.co2  39  ASP39      -0.2456
     31  N         -3.5960    5.6360   24.7250 N.am   40  ALA40      -0.1979
     32  CA        -3.8470    6.1720   26.0590 C.3    40  ALA40       0.1597
     33  C         -5.2410    5.7940   26.5290 C.2    40  ALA40       0.2287
     34  O         -5.4590    5.5580   27.7400 O.2    40  ALA40      -0.2864
     35  CB        -3.6320    7.7130   26.0900 C.3    40  ALA40       0.0319
     36  N         -7.9110   14.1240   24.3060 N.3    78  ASP78      -0.1239
     37  CA        -8.3890   12.7980   24.6780 C.3    78  ASP78       0.1674
     38  C         -8.7080   12.7270   26.1590 C.2    78  ASP78       0.2266
     39  O         -8.2090   13.5120   26.9530 O.2    78  ASP78      -0.2867
     40  CB        -7.3580   11.6970   24.2110 C.3    78  ASP78       0.1410
     41  CG        -6.0330   11.7180   24.9510 C.2    78  ASP78       0.3668
     42  OD1       -5.9940   11.3550   26.2000 O.co2  78  ASP78      -0.2456
     43  OD2       -4.9770   12.0130   24.3190 O.co2  78  ASP78      -0.2456
     44  N         -5.2740    8.0160   29.5790 N.3    81  ILE81      -0.1231
     45  CA        -4.6640    7.8880   30.8900 C.3    81  ILE81       0.1692
     46  C         -3.9380    9.1270   31.3570 C.2    81  ILE81       0.2593
     47  O         -3.6770    9.2740   32.5260 O.2    81  ILE81      -0.2718
     48  CB        -3.7000    6.6490   30.8830 C.3    81  ILE81       0.0266
     49  CG1       -3.2890    6.3430   32.3270 C.3    81  ILE81       0.0019
     50  CG2       -2.4610    6.8270   29.9100 C.3    81  ILE81       0.0020
     51  CD1       -3.1640    4.7990   32.5510 C.3    81  ILE81       0.0001
     52  N         -3.5390    9.9790   30.4250 N.am   82  GLY82      -0.1942
     53  CA        -2.7810   11.1690   30.7680 C.3    82  GLY82       0.2014
     54  C         -1.3200   10.8800   31.1090 C.2    82  GLY82       0.2638
     55  O         -0.8640    9.7130   31.0410 O.2    82  GLY82      -0.2714
     56  N         -0.5720   11.9330   31.4120 N.am   83  MET83      -0.1976
     57  CA         0.8740   11.7850   31.6300 C.3    83  MET83       0.1605
     58  C          1.2450   12.4490   32.9060 C.2    83  MET83       0.2287
     59  O          0.6930   13.5100   33.2060 O.2    83  MET83      -0.2864
     60  CB         1.6610   12.4740   30.4980 C.3    83  MET83       0.0413
     61  CG         1.6860   11.5890   29.1950 C.3    83  MET83       0.0598
     62  SD         2.3740   12.3990   27.7390 S.3    83  MET83      -0.1393
     63  CE         0.9990   13.2940   27.3540 C.3    83  MET83       0.0692
     64  N          6.6800   13.6100   31.4540 N.3    88  LEU88      -0.1245
     65  CA         6.9590   14.7670   30.6020 C.3    88  LEU88       0.1561
     66  C          8.4140   15.1620   30.6530 C.2    88  LEU88       0.2260
     67  O          9.0180   15.5420   29.6380 O.2    88  LEU88      -0.2867
     68  CB         6.1250   15.9830   31.0950 C.3    88  LEU88       0.0270
     69  CG         4.6570   15.8460   30.9040 C.3    88  LEU88       0.0019
     70  CD1        3.8930   17.0070   31.5970 C.3    88  LEU88       0.0001
     71  CD2        4.2910   15.8270   29.4160 C.3    88  LEU88       0.0001
     72  N          9.3360    9.7180   29.0930 N.3    92  LEU92      -0.1245
     73  CA         9.0320    9.5450   27.6680 C.3    92  LEU92       0.1561
     74  C         10.2710    9.7770   26.8170 C.2    92  LEU92       0.2260
     75  O         10.5110    9.0820   25.8280 O.2    92  LEU92      -0.2867
     76  CB         7.8670   10.4130   27.2250 C.3    92  LEU92       0.0270
     77  CG         6.6740   10.1650   28.1220 C.3    92  LEU92       0.0019
     78  CD1        5.6880   11.1530   27.7410 C.3    92  LEU92       0.0001
     79  CD2        6.1070    8.6970   27.9610 C.3    92  LEU92       0.0001
     80  N         12.3610    6.6900   26.9950 N.3    95  ILE95      -0.1245
     81  CA        11.8850    5.6330   26.1210 C.3    95  ILE95       0.1561
     82  C         12.1720    5.9850   24.6880 C.2    95  ILE95       0.2260
     83  O         12.5670    5.1190   23.9040 O.2    95  ILE95      -0.2867
     84  CB        10.4020    5.3690   26.2630 C.3    95  ILE95       0.0252
     85  CG1       10.0560    5.0910   27.7080 C.3    95  ILE95       0.0019
     86  CG2       10.0160    4.1170   25.5000 C.3    95  ILE95       0.0019
     87  CD1       10.9650    4.1000   28.3160 C.3    95  ILE95       0.0001
     88  N          7.7990    4.2700   17.4810 N.3   120  GLY120     -0.1225
     89  CA         7.3030    4.8400   18.7200 C.3   120  GLY120      0.1811
     90  C          7.6610    6.2900   19.0580 C.2   120  GLY120      0.2280
     91  O          7.6140    6.6720   20.1940 O.2   120  GLY120     -0.2866
     92  N          4.7800   11.2040   18.2860 N.3   123  PHE123     -0.1227
     93  CA         4.5130   12.5540   18.7780 C.3   123  PHE123      0.1736
     94  C          5.2950   13.6740   18.1100 C.2   123  PHE123      0.2595
     95  O          4.7500   14.7630   17.8850 O.2   123  PHE123     -0.2718
     96  CB         4.7610   12.6550   20.3200 C.3   123  PHE123      0.0547
     97  CG         4.6520   14.0410   20.8500 C.ar  123  PHE123     -0.0202
     98  CD1        3.4300   14.6430   21.0010 C.ar  123  PHE123     -0.0042
     99  CD2        5.7930   14.7370   21.2630 C.ar  123  PHE123     -0.0042
    100  CE1        3.3110   15.9690   21.5460 C.ar  123  PHE123     -0.0003
    101  CE2        5.6980   16.0620   21.7560 C.ar  123  PHE123     -0.0003
    102  CZ         4.4450   16.6640   21.9170 C.ar  123  PHE123     -0.0000
    103  N          6.5770   13.4490   17.8270 N.am  124  TYR124     -0.1976
    104  CA         7.4220   14.5080   17.2680 C.3   124  TYR124      0.1639
    105  C          7.0300   14.9280   15.8660 C.2   124  TYR124      0.2290
    106  O          7.3840   16.0240   15.4040 O.2   124  TYR124     -0.2864
    107  CB         8.9510   14.1740   17.4560 C.3   124  TYR124      0.0560
    108  CG         9.2420   13.9410   18.9480 C.ar  124  TYR124     -0.0198
    109  CD1        9.4120   15.0480   19.8400 C.ar  124  TYR124     -0.0009
    110  CD2        9.3230   12.6170   19.4920 C.ar  124  TYR124     -0.0009
    111  CE1        9.6370   14.8360   21.2300 C.ar  124  TYR124      0.0417
    112  CE2        9.5460   12.4310   20.8910 C.ar  124  TYR124      0.0417
    113  CZ         9.7120   13.5300   21.7290 C.ar  124  TYR124      0.1957
    114  OH         9.8760   13.3650   23.0780 O.3   124  TYR124     -0.2866
    115  N          1.3330   20.8610   25.4940 N.3   135  VAL135     -0.1245
    116  CA         0.5720   19.6510   25.8630 C.3   135  VAL135      0.1561
    117  C          0.0430   19.8580   27.2570 C.2   135  VAL135      0.2260
    118  O          0.8130   20.1250   28.1680 O.2   135  VAL135     -0.2867
    119  CB         1.5500   18.4340   25.8970 C.3   135  VAL135      0.0252
    120  CG1        0.8670   17.1730   26.4660 C.3   135  VAL135      0.0019
    121  CG2        2.0930   18.1800   24.5080 C.3   135  VAL135      0.0019
    122  N          3.2190   21.3110   29.3370 N.3   147  TRP147     -0.1241
    123  CA         4.5390   21.1130   28.6870 C.3   147  TRP147      0.1605
    124  C          4.4820   21.9310   27.4420 C.2   147  TRP147      0.2264
    125  O          3.4090   22.0240   26.7580 O.2   147  TRP147     -0.2867
    126  CB         4.7150   19.6340   28.3600 C.3   147  TRP147      0.0550
    127  CG         5.9560   19.2410   27.5760 C.ar  147  TRP147      0.0003
    128  CD1        7.1120   18.6310   28.0510 C.ar  147  TRP147      0.0946
    129  CD2        6.1110   19.3500   26.1870 C.ar  147  TRP147      0.0152
    130  NE1        7.9570   18.3810   26.9900 N.ar  147  TRP147     -0.2442
    131  CE2        7.3930   18.8820   25.8520 C.ar  147  TRP147      0.0810
    132  CE3        5.2850   19.8040   25.1760 C.ar  147  TRP147      0.0012
    133  CZ2        7.8260   18.8180   24.5350 C.ar  147  TRP147      0.0191
    134  CZ3        5.7260   19.8060   23.8980 C.ar  147  TRP147      0.0001
    135  CH2        6.9440   19.2910   23.5700 C.ar  147  TRP147      0.0015
    136  N         -5.3780   14.3180   27.9400 N.3   169  THR169     -0.1218
    137  CA        -4.3240   15.1100   27.3730 C.3   169  THR169      0.1862
    138  C         -4.8750   15.9290   26.2920 C.2   169  THR169      0.2287
    139  O         -5.7330   15.4780   25.5100 O.2   169  THR169     -0.2866
    140  CB        -3.2530   14.1570   26.7570 C.3   169  THR169      0.1770
    141  OG1       -2.7410   13.3330   27.7860 O.3   169  THR169     -0.2211
    142  CG2       -2.0900   14.9290   26.1530 C.3   169  THR169      0.0375
    143  N         -3.2320   18.0160   23.1400 N.3   171  VAL171     -0.1245
    144  CA        -2.0570   18.4310   22.4210 C.3   171  VAL171      0.1561
    145  C         -2.4460   19.6340   21.5410 C.2   171  VAL171      0.2260
    146  O         -3.2240   19.5060   20.5570 O.2   171  VAL171     -0.2867
    147  CB        -1.5130   17.3550   21.5580 C.3   171  VAL171      0.0252
    148  CG1       -0.3750   17.8920   20.6850 C.3   171  VAL171      0.0019
    149  CG2       -1.0510   16.1300   22.3990 C.3   171  VAL171      0.0019
@<TRIPOS>BOND
     1   106   105    2
     2   105   104    1
     3     1     2    1
     4     7     6    1
     5     6     5    1
     6     6     8    1
     7   104   107    1
     8   104   103    1
     9     5     2    1
    10   107   108    1
    11     2     3    1
    12    88    89    1
    13   103    94   am
    14    95    94    2
    15     3     4    2
    16    94    93    1
    17    92    93    1
    18    89    90    1
    19    93    96    1
    20   108   110   ar
    21   108   109   ar
    22    90    91    2
    23     9    10    1
    24   110   112   ar
    25    16    14   am
    26    15    14    2
    27   109   111   ar
    28    14    13    1
    29    96    97    1
    30   146   145    2
    31    10    13    1
    32    10    11    1
    33   148   147    1
    34    29    28   ar
    35    97    98   ar
    36    97    99   ar
    37   112   113   ar
    38    98   100   ar
    39    30    28   ar
    40    17    11   am
    41    17    18    1
    42   111   113   ar
    43    99   101   ar
    44    21    22    1
    45    21    18    1
    46    28    27    1
    47   145   144    1
    48   100   102   ar
    49   147   149    1
    50   147   144    1
    51    11    12    2
    52   113   114    1
    53   101   102   ar
    54    18    19    1
    55    23    24    1
    56    19    20    2
    57   144   143    1
    58    27    24    1
    59    24    25    1
    60   135   134   ar
    61   135   133   ar
    62   134   132   ar
    63    83    82    2
    64    40    37    1
    65    40    41    1
    66    36    37    1
    67    43    41   ar
    68    25    31   am
    69    25    26    2
    70   121   119    1
    71   133   131   ar
    72    37    38    1
    73    82    81    1
    74    31    32    1
    75    41    42   ar
    76   132   129   ar
    77   115   116    1
    78    86    84    1
    79   139   138    2
    80    75    74    2
    81   131   129   ar
    82   131   130   ar
    83   116   119    1
    84   116   117    1
    85   119   120    1
    86    32    35    1
    87    32    33    1
    88    81    84    1
    89    81    80    1
    90   142   140    1
    91    38    39    2
    92   129   127   ar
    93    84    85    1
    94   138   137    1
    95    33    34    2
    96   140   137    1
    97   140   141    1
    98   125   124    2
    99    74    73    1
   100   130   128   ar
   101    76    73    1
   102    76    77    1
   103   117   118    2
   104    63    62    1
   105   137   136    1
   106   124   123    1
   107   127   128   ar
   108   127   126    1
   109    73    72    1
   110    85    87    1
   111    62    61    1
   112    78    77    1
   113    79    77    1
   114   126   123    1
   115   123   122    1
   116    61    60    1
   117    71    69    1
   118    44    45    1
   119    67    66    2
   120    50    48    1
   121    52    53    1
   122    52    46   am
   123    60    57    1
   124    65    66    1
   125    65    68    1
   126    65    64    1
   127    53    54    1
   128    48    45    1
   129    48    49    1
   130    45    46    1
   131    69    68    1
   132    69    70    1
   133    55    54    2
   134    54    56   am
   135    46    47    2
   136    56    57    1
   137    57    58    1
   138    49    51    1
   139    58    59    2
