@<TRIPOS>MOLECULE
tmp/1uy8A00.pdb
 149 139 0 0 0
SMALL
GASTEIGER

@<TRIPOS>ATOM
      1  N         -0.8230   11.3160   16.2770 N.3    32  LEU32      -0.1245
      2  CA        -1.3640   11.8800   17.5300 C.3    32  LEU32       0.1561
      3  C         -2.6340   11.1150   17.9250 C.2    32  LEU32       0.2260
      4  O         -2.8680   10.8320   19.0920 O.2    32  LEU32      -0.2867
      5  CB        -1.6650   13.4030   17.3920 C.3    32  LEU32       0.0270
      6  CG        -0.3700   14.1950   17.0890 C.3    32  LEU32       0.0019
      7  CD1       -0.7590   15.6670   16.8670 C.3    32  LEU32       0.0001
      8  CD2        0.6530   14.0480   18.2270 C.3    32  LEU32       0.0001
      9  N         -1.6110    7.8410   19.3640 N.3    35  ASN35      -0.1225
     10  CA        -1.2160    8.0250   20.7590 C.3    35  ASN35       0.1785
     11  C         -2.3860    8.1510   21.6850 C.2    35  ASN35       0.2597
     12  O         -2.3440    7.6330   22.7860 O.2    35  ASN35      -0.2718
     13  CB        -0.3570    9.3040   20.8780 C.3    35  ASN35       0.1169
     14  CG         1.0500    9.0830   20.3230 C.2    35  ASN35       0.2627
     15  OD1        1.4810    7.9200   20.0910 O.2    35  ASN35      -0.2716
     16  ND2        1.7890   10.2040   20.0890 N.am   35  ASN35      -0.0877
     17  N         -3.4130    8.9220   21.2780 N.am   36  SER36      -0.1952
     18  CA        -4.6060    9.0810   22.0780 C.3    36  SER36       0.1924
     19  C         -5.2960    7.7340   22.2500 C.2    36  SER36       0.2314
     20  O         -5.7150    7.3870   23.3510 O.2    36  SER36      -0.2863
     21  CB        -5.5570   10.0510   21.3890 C.3    36  SER36       0.2116
     22  OG        -4.9960   11.3610   21.4620 O.3    36  SER36      -0.2180
     23  N         -3.9240    4.6540   22.1660 N.3    38  ASP38      -0.1225
     24  CA        -3.1610    3.8800   23.1220 C.3    38  ASP38       0.1805
     25  C         -3.4330    4.3030   24.5820 C.2    38  ASP38       0.2597
     26  O         -3.5570    3.4560   25.4760 O.2    38  ASP38      -0.2718
     27  CB        -1.6710    4.0180   22.8630 C.3    38  ASP38       0.1424
     28  CG        -1.2290    3.4340   21.5120 C.2    38  ASP38       0.3668
     29  OD1       -2.0630    2.7510   20.8250 O.co2  38  ASP38      -0.2456
     30  OD2       -0.0760    3.6830   21.0360 O.co2  38  ASP38      -0.2456
     31  N         -3.5120    5.6170   24.8170 N.am   39  ALA39      -0.1979
     32  CA        -3.7930    6.1750   26.1520 C.3    39  ALA39       0.1597
     33  C         -5.2150    5.8260   26.6310 C.2    39  ALA39       0.2287
     34  O         -5.4640    5.6150   27.8460 O.2    39  ALA39      -0.2864
     35  CB        -3.6330    7.7210   26.0890 C.3    39  ALA39       0.0319
     36  N         -7.9080   13.9810   24.2380 N.3    77  ASP77      -0.1239
     37  CA        -8.4030   12.6570   24.5680 C.3    77  ASP77       0.1674
     38  C         -8.6930   12.5920   26.0730 C.2    77  ASP77       0.2266
     39  O         -8.1780   13.4000   26.8530 O.2    77  ASP77      -0.2867
     40  CB        -7.4230   11.5410   24.1150 C.3    77  ASP77       0.1410
     41  CG        -6.0900   11.5770   24.8520 C.2    77  ASP77       0.3668
     42  OD1       -6.0620   11.3500   26.1010 O.co2  77  ASP77      -0.2456
     43  OD2       -5.0200   11.8370   24.2530 O.co2  77  ASP77      -0.2456
     44  N         -5.3210    8.0170   29.5700 N.3    80  ILE80      -0.1231
     45  CA        -4.7000    7.9130   30.8960 C.3    80  ILE80       0.1692
     46  C         -3.9900    9.1890   31.3920 C.2    80  ILE80       0.2593
     47  O         -3.7890    9.3730   32.5940 O.2    80  ILE80      -0.2718
     48  CB        -3.6970    6.7350   30.8830 C.3    80  ILE80       0.0266
     49  CG1       -3.2450    6.4390   32.3260 C.3    80  ILE80       0.0019
     50  CG2       -2.5170    7.0040   29.9190 C.3    80  ILE80       0.0020
     51  CD1       -3.5620    4.9930   32.7510 C.3    80  ILE80       0.0001
     52  N         -3.5820   10.0590   30.4610 N.am   81  GLY81      -0.1942
     53  CA        -2.8630   11.2600   30.8740 C.3    81  GLY81       0.2014
     54  C         -1.4010   10.9530   31.1350 C.2    81  GLY81       0.2638
     55  O         -0.9720    9.7750   31.0290 O.2    81  GLY81      -0.2714
     56  N         -0.6230   11.9900   31.4450 N.am   82  MET82      -0.1976
     57  CA         0.8160   11.8040   31.7010 C.3    82  MET82       0.1605
     58  C          1.1570   12.4680   33.0260 C.2    82  MET82       0.2287
     59  O          0.6180   13.5240   33.3310 O.2    82  MET82      -0.2864
     60  CB         1.6620   12.4570   30.6100 C.3    82  MET82       0.0413
     61  CG         1.7200   11.6320   29.3370 C.3    82  MET82       0.0598
     62  SD         2.3670   12.4480   27.9040 S.3    82  MET82      -0.1393
     63  CE         1.0290   13.5710   27.4240 C.3    82  MET82       0.0692
     64  N          6.6340   13.5380   31.6670 N.3    87  LEU87      -0.1245
     65  CA         6.9040   14.6850   30.8070 C.3    87  LEU87       0.1561
     66  C          8.3930   15.0590   30.8080 C.2    87  LEU87       0.2260
     67  O          9.0190   15.3240   29.7490 O.2    87  LEU87      -0.2867
     68  CB         6.0410   15.9080   31.2350 C.3    87  LEU87       0.0270
     69  CG         4.5660   15.8090   30.9860 C.3    87  LEU87       0.0019
     70  CD1        3.7780   17.0090   31.7090 C.3    87  LEU87       0.0001
     71  CD2        4.3220   15.7710   29.4370 C.3    87  LEU87       0.0001
     72  N          9.3050    9.6780   29.1960 N.3    91  LEU91      -0.1245
     73  CA         9.0210    9.6050   27.7600 C.3    91  LEU91       0.1561
     74  C         10.2610    9.7590   26.9170 C.2    91  LEU91       0.2260
     75  O         10.4380    9.0720   25.8970 O.2    91  LEU91      -0.2867
     76  CB         7.9610   10.6200   27.3520 C.3    91  LEU91       0.0270
     77  CG         6.6720   10.2830   28.0810 C.3    91  LEU91       0.0019
     78  CD1        5.6400   11.3270   27.8370 C.3    91  LEU91       0.0001
     79  CD2        6.1630    8.8930   27.7400 C.3    91  LEU91       0.0001
     80  N         12.2850    6.5270   27.1320 N.3    94  ILE94      -0.1245
     81  CA        11.6810    5.5700   26.2120 C.3    94  ILE94       0.1561
     82  C         11.9870    5.9610   24.7640 C.2    94  ILE94       0.2260
     83  O         12.4130    5.1110   23.9830 O.2    94  ILE94      -0.2867
     84  CB        10.1790    5.4020   26.4710 C.3    94  ILE94       0.0252
     85  CG1        9.9060    5.0460   27.9460 C.3    94  ILE94       0.0019
     86  CG2        9.6460    4.2840   25.6260 C.3    94  ILE94       0.0019
     87  CD1       10.5930    3.8020   28.4270 C.3    94  ILE94       0.0001
     88  N          7.7950    4.3040   17.7340 N.3   119  GLY119     -0.1225
     89  CA         7.2310    4.8400   18.9740 C.3   119  GLY119      0.1811
     90  C          7.5710    6.3080   19.2640 C.2   119  GLY119      0.2280
     91  O          7.5560    6.7460   20.3940 O.2   119  GLY119     -0.2866
     92  N          4.8120   11.2270   18.1570 N.3   122  PHE122     -0.1227
     93  CA         4.4650   12.5420   18.7230 C.3   122  PHE122      0.1736
     94  C          5.2400   13.6430   18.0390 C.2   122  PHE122      0.2595
     95  O          4.6880   14.6880   17.7260 O.2   122  PHE122     -0.2718
     96  CB         4.7470   12.6100   20.2480 C.3   122  PHE122      0.0547
     97  CG         4.6370   14.0220   20.8020 C.ar  122  PHE122     -0.0202
     98  CD1        3.3870   14.5880   21.0190 C.ar  122  PHE122     -0.0042
     99  CD2        5.7910   14.7550   21.1450 C.ar  122  PHE122     -0.0042
    100  CE1        3.2640   15.8960   21.5100 C.ar  122  PHE122     -0.0003
    101  CE2        5.6660   16.0820   21.6170 C.ar  122  PHE122     -0.0003
    102  CZ         4.3870   16.6240   21.8170 C.ar  122  PHE122     -0.0000
    103  N          6.5440   13.4290   17.8190 N.am  123  TYR123     -0.1976
    104  CA         7.4070   14.4910   17.3070 C.3   123  TYR123      0.1639
    105  C          7.1080   14.8380   15.8760 C.2   123  TYR123      0.2290
    106  O          7.5160   15.9000   15.3940 O.2   123  TYR123     -0.2864
    107  CB         8.9040   14.1910   17.5240 C.3   123  TYR123      0.0560
    108  CG         9.2060   13.8700   18.9590 C.ar  123  TYR123     -0.0198
    109  CD1        9.4720   14.9060   19.8900 C.ar  123  TYR123     -0.0009
    110  CD2        9.2010   12.5520   19.4160 C.ar  123  TYR123     -0.0009
    111  CE1        9.7240   14.6080   21.2430 C.ar  123  TYR123      0.0417
    112  CE2        9.4120   12.2720   20.7570 C.ar  123  TYR123      0.0417
    113  CZ         9.7070   13.3100   21.6520 C.ar  123  TYR123      0.1957
    114  OH         9.9440   12.9880   22.9750 O.3   123  TYR123     -0.2866
    115  N          1.2040   20.8720   25.3920 N.3   134  VAL134     -0.1245
    116  CA         0.5040   19.6370   25.8040 C.3   134  VAL134      0.1561
    117  C         -0.0250   19.8670   27.1750 C.2   134  VAL134      0.2260
    118  O          0.7760   20.1100   28.0820 O.2   134  VAL134     -0.2867
    119  CB         1.4380   18.3880   25.7890 C.3   134  VAL134      0.0252
    120  CG1        0.6420   17.1290   26.2710 C.3   134  VAL134      0.0019
    121  CG2        1.9390   18.1530   24.3580 C.3   134  VAL134      0.0019
    122  N          3.0860   21.2140   29.2470 N.3   146  TRP146     -0.1241
    123  CA         4.4060   21.0410   28.6330 C.3   146  TRP146      0.1605
    124  C          4.3670   21.8970   27.3800 C.2   146  TRP146      0.2264
    125  O          3.3070   22.0330   26.7160 O.2   146  TRP146     -0.2867
    126  CB         4.5640   19.5490   28.2710 C.3   146  TRP146      0.0550
    127  CG         5.7680   19.0920   27.4810 C.ar  146  TRP146      0.0003
    128  CD1        6.8470   18.3870   27.9850 C.ar  146  TRP146      0.0946
    129  CD2        5.9800   19.1730   26.0630 C.ar  146  TRP146      0.0152
    130  NE1        7.7090   18.0630   26.9620 N.ar  146  TRP146     -0.2442
    131  CE2        7.2210   18.5550   25.7850 C.ar  146  TRP146      0.0810
    132  CE3        5.2660   19.7520   24.9850 C.ar  146  TRP146      0.0012
    133  CZ2        7.7430   18.4520   24.4940 C.ar  146  TRP146      0.0191
    134  CZ3        5.7980   19.6610   23.6970 C.ar  146  TRP146      0.0001
    135  CH2        7.0360   19.0240   23.4670 C.ar  146  TRP146      0.0015
    136  N         -5.4220   14.2260   27.9230 N.3   168  THR168     -0.1218
    137  CA        -4.3490   15.0210   27.3560 C.3   168  THR168      0.1862
    138  C         -4.8720   15.8840   26.2090 C.2   168  THR168      0.2287
    139  O         -5.6990   15.4060   25.4040 O.2   168  THR168     -0.2866
    140  CB        -3.3170   14.0650   26.7920 C.3   168  THR168      0.1770
    141  OG1       -2.7130   13.3570   27.8590 O.3   168  THR168     -0.2211
    142  CG2       -2.1720   14.8240   26.0510 C.3   168  THR168      0.0375
    143  N         -3.2670   18.0020   23.0330 N.3   170  VAL170     -0.1245
    144  CA        -2.0900   18.3890   22.2930 C.3   170  VAL170      0.1561
    145  C         -2.5320   19.5680   21.4400 C.2   170  VAL170      0.2260
    146  O         -3.3490   19.4240   20.5280 O.2   170  VAL170     -0.2867
    147  CB        -1.5590   17.2510   21.4380 C.3   170  VAL170      0.0252
    148  CG1       -0.4290   17.7630   20.5250 C.3   170  VAL170      0.0019
    149  CG2       -1.0850   16.0810   22.3630 C.3   170  VAL170      0.0019
@<TRIPOS>BOND
     1   106   105    2
     2   105   104    1
     3     1     2    1
     4     7     6    1
     5     6     5    1
     6     6     8    1
     7   104   107    1
     8   104   103    1
     9     5     2    1
    10   107   108    1
    11     2     3    1
    12    95    94    2
    13    88    89    1
    14   103    94   am
    15     3     4    2
    16    94    93    1
    17    92    93    1
    18    93    96    1
    19   108   110   ar
    20   108   109   ar
    21    89    90    1
    22    90    91    2
    23     9    10    1
    24   110   112   ar
    25   109   111   ar
    26    16    14   am
    27    15    14    2
    28    96    97    1
    29    14    13    1
    30   148   147    1
    31   146   145    2
    32   112   113   ar
    33    10    13    1
    34    10    11    1
    35    97    98   ar
    36    97    99   ar
    37    29    28   ar
    38    98   100   ar
    39    30    28   ar
    40    99   101   ar
    41   111   113   ar
    42    17    11   am
    43    17    18    1
    44    21    22    1
    45    21    18    1
    46   147   144    1
    47   147   149    1
    48   145   144    1
    49   100   102   ar
    50    28    27    1
    51   101   102   ar
    52   113   114    1
    53    11    12    2
    54    18    19    1
    55    23    24    1
    56    19    20    2
    57   144   143    1
    58    27    24    1
    59    24    25    1
    60   135   134   ar
    61   135   133   ar
    62   134   132   ar
    63    83    82    2
    64    40    37    1
    65    40    41    1
    66    36    37    1
    67    43    41   ar
    68   121   119    1
    69   133   131   ar
    70    37    38    1
    71    25    31   am
    72    25    26    2
    73    82    81    1
    74    31    32    1
    75    41    42   ar
    76   132   129   ar
    77   115   116    1
    78   139   138    2
    79    86    84    1
    80   131   129   ar
    81   131   130   ar
    82   119   116    1
    83   119   120    1
    84   116   117    1
    85    75    74    2
    86   142   140    1
    87   129   127   ar
    88    38    39    2
    89    35    32    1
    90    32    33    1
    91   138   137    1
    92    81    84    1
    93    81    80    1
    94    84    85    1
    95    33    34    2
    96   125   124    2
    97   140   137    1
    98   140   141    1
    99    74    73    1
   100   130   128   ar
   101   117   118    2
   102    76    73    1
   103    76    77    1
   104   137   136    1
   105   124   123    1
   106    63    62    1
   107   127   128   ar
   108   127   126    1
   109    79    77    1
   110    73    72    1
   111    78    77    1
   112    62    61    1
   113    85    87    1
   114   126   123    1
   115   123   122    1
   116    61    60    1
   117    71    69    1
   118    44    45    1
   119    67    66    2
   120    50    48    1
   121    52    53    1
   122    52    46   am
   123    60    57    1
   124    65    66    1
   125    65    68    1
   126    65    64    1
   127    53    54    1
   128    48    45    1
   129    48    49    1
   130    45    46    1
   131    69    68    1
   132    69    70    1
   133    55    54    2
   134    54    56   am
   135    46    47    2
   136    56    57    1
   137    57    58    1
   138    49    51    1
   139    58    59    2
