@<TRIPOS>MOLECULE
tmp/1uygA00.pdb
 145 135 0 0 0
SMALL
GASTEIGER

@<TRIPOS>ATOM
      1  N         -0.8130   11.3920   16.3160 N.3    33  LEU33      -0.1245
      2  CA        -1.3010   11.9150   17.6060 C.3    33  LEU33       0.1561
      3  C         -2.6070   11.2270   18.0150 C.2    33  LEU33       0.2260
      4  O         -2.8550   11.0400   19.2100 O.2    33  LEU33      -0.2867
      5  CB        -1.5150   13.4540   17.5240 C.3    33  LEU33       0.0270
      6  CG        -0.2750   14.2260   17.1190 C.3    33  LEU33       0.0019
      7  CD1       -0.7040   15.7120   16.9850 C.3    33  LEU33       0.0001
      8  CD2        0.7980   14.1170   18.1680 C.3    33  LEU33       0.0001
      9  N         -1.6310    7.9200   19.4670 N.3    36  ASN36      -0.1225
     10  CA        -1.1370    8.1630   20.8420 C.3    36  ASN36       0.1785
     11  C         -2.2960    8.3160   21.8010 C.2    36  ASN36       0.2597
     12  O         -2.2600    7.7720   22.9170 O.2    36  ASN36      -0.2718
     13  CB        -0.2380    9.4230   20.8850 C.3    36  ASN36       0.1169
     14  CG         1.1600    9.1590   20.2870 C.2    36  ASN36       0.2627
     15  OD1        1.5040    7.9990   20.0140 O.2    36  ASN36      -0.2716
     16  ND2        1.9510   10.2210   20.0520 N.am   36  ASN36      -0.0877
     17  N         -3.3410    9.0290   21.3660 N.am   37  SER37      -0.1952
     18  CA        -4.5630    9.1970   22.1640 C.3    37  SER37       0.1924
     19  C         -5.2940    7.8690   22.3900 C.2    37  SER37       0.2314
     20  O         -5.7080    7.5490   23.5110 O.2    37  SER37      -0.2863
     21  CB        -5.4820   10.2220   21.5030 C.3    37  SER37       0.2116
     22  OG        -4.9090   11.5080   21.7170 O.3    37  SER37      -0.2180
     23  N         -3.4790    5.7430   24.9660 N.3    40  ALA40      -0.1245
     24  CA        -3.7820    6.3230   26.2780 C.3    40  ALA40       0.1562
     25  C         -5.2080    6.0290   26.7500 C.2    40  ALA40       0.2260
     26  O         -5.4430    5.8560   27.9440 O.2    40  ALA40      -0.2867
     27  CB        -3.5310    7.8460   26.2660 C.3    40  ALA40       0.0290
     28  N         -7.7480   14.2020   24.2930 N.3    78  ASP78      -0.1239
     29  CA        -8.2560   12.9130   24.6750 C.3    78  ASP78       0.1674
     30  C         -8.6070   12.8420   26.1730 C.2    78  ASP78       0.2266
     31  O         -8.2090   13.7070   26.9550 O.2    78  ASP78      -0.2867
     32  CB        -7.3170   11.7890   24.2030 C.3    78  ASP78       0.1410
     33  CG        -5.9780   11.7950   24.9240 C.2    78  ASP78       0.3668
     34  OD1       -5.9580   11.6000   26.1620 O.co2  78  ASP78      -0.2456
     35  OD2       -4.8990   11.9480   24.3320 O.co2  78  ASP78      -0.2456
     36  N         -5.3570    8.1880   29.7740 N.3    81  ILE81      -0.1231
     37  CA        -4.7660    8.0660   31.0990 C.3    81  ILE81       0.1692
     38  C         -4.0460    9.2980   31.6040 C.2    81  ILE81       0.2593
     39  O         -3.8860    9.4580   32.8070 O.2    81  ILE81      -0.2718
     40  CB        -3.8340    6.8550   31.1470 C.3    81  ILE81       0.0266
     41  CG1       -3.4650    6.5150   32.5950 C.3    81  ILE81       0.0019
     42  CG2       -2.5780    7.0710   30.2100 C.3    81  ILE81       0.0020
     43  CD1       -3.3260    4.9680   32.8930 C.3    81  ILE81       0.0001
     44  N         -3.5700   10.1480   30.6970 N.am   82  GLY82      -0.1942
     45  CA        -2.8570   11.3440   31.1230 C.3    82  GLY82       0.2014
     46  C         -1.4150   11.0480   31.4910 C.2    82  GLY82       0.2638
     47  O         -0.9870    9.8820   31.5690 O.2    82  GLY82      -0.2714
     48  N         -0.6280   12.1100   31.6570 N.am   83  MET83      -0.1976
     49  CA         0.7950   11.9330   31.9360 C.3    83  MET83       0.1605
     50  C          1.1570   12.5510   33.2910 C.2    83  MET83       0.2287
     51  O          0.6710   13.6450   33.6600 O.2    83  MET83      -0.2864
     52  CB         1.6350   12.5320   30.8080 C.3    83  MET83       0.0413
     53  CG         1.7500   11.6110   29.6010 C.3    83  MET83       0.0598
     54  SD         2.5850   12.3070   28.1680 S.3    83  MET83      -0.1393
     55  CE         1.4690   13.7300   27.6020 C.3    83  MET83       0.0692
     56  N          6.7170   13.3900   31.7790 N.3    88  LEU88      -0.1245
     57  CA         7.0470   14.5710   30.9740 C.3    88  LEU88       0.1561
     58  C          8.5500   14.8980   30.9460 C.2    88  LEU88       0.2260
     59  O          9.1250   15.2020   29.9000 O.2    88  LEU88      -0.2867
     60  CB         6.2340   15.7810   31.4630 C.3    88  LEU88       0.0270
     61  CG         4.7440   15.7710   31.1160 C.3    88  LEU88       0.0019
     62  CD1        4.0370   17.0420   31.6440 C.3    88  LEU88       0.0001
     63  CD2        4.5370   15.5940   29.6350 C.3    88  LEU88       0.0001
     64  N          9.2400    9.6130   29.1940 N.3    92  LEU92      -0.1245
     65  CA         9.0560    9.6680   27.7470 C.3    92  LEU92       0.1561
     66  C         10.3730    9.7930   26.9940 C.2    92  LEU92       0.2260
     67  O         10.5850    9.0840   26.0140 O.2    92  LEU92      -0.2867
     68  CB         8.0940   10.7660   27.3430 C.3    92  LEU92       0.0270
     69  CG         6.6580   10.6030   27.8520 C.3    92  LEU92       0.0019
     70  CD1        5.8770   11.6890   27.2050 C.3    92  LEU92       0.0001
     71  CD2        6.0460    9.2530   27.5590 C.3    92  LEU92       0.0001
     72  N         12.1010    7.2390   24.4820 N.3    96  ALA96      -0.1245
     73  CA        12.2360    7.7780   23.1360 C.3    96  ALA96       0.1562
     74  C         13.6650    7.6550   22.5620 C.2    96  ALA96       0.2260
     75  O         13.8550    7.6010   21.3440 O.2    96  ALA96      -0.2867
     76  CB        11.7350    9.2380   23.0830 C.3    96  ALA96       0.0290
     77  N          7.7540    4.3200   17.8850 N.3   120  GLY120     -0.1210
     78  CA         7.1150    4.7650   19.1520 C.3   120  GLY120      0.1956
     79  C          7.5110    6.3170   19.3830 C.2   120  GLY120      0.2611
     80  O          7.3980    6.8150   20.5050 O.2   120  GLY120     -0.2717
     81  N          7.8400    7.0530   18.3280 N.am  121  VAL121     -0.1979
     82  CA         8.1820    8.4800   18.5200 C.3   121  VAL121      0.1595
     83  C          7.3460    9.3990   17.6240 C.2   121  VAL121      0.2287
     84  O          7.7870   10.5390   17.2750 O.2   121  VAL121     -0.2864
     85  CB         9.7300    8.7690   18.3170 C.3   121  VAL121      0.0276
     86  CG1       10.4950    8.3020   19.4730 C.3   121  VAL121      0.0022
     87  CG2       10.2770    8.1340   17.0360 C.3   121  VAL121      0.0022
     88  N          4.9260   11.2400   18.1850 N.3   123  PHE123     -0.1227
     89  CA         4.6220   12.5660   18.7330 C.3   123  PHE123      0.1736
     90  C          5.4090   13.6620   18.0160 C.2   123  PHE123      0.2595
     91  O          4.8470   14.7240   17.7320 O.2   123  PHE123     -0.2718
     92  CB         4.8940   12.6130   20.2540 C.3   123  PHE123      0.0547
     93  CG         4.7960   14.0070   20.8390 C.ar  123  PHE123     -0.0202
     94  CD1        3.5590   14.5590   21.1410 C.ar  123  PHE123     -0.0042
     95  CD2        5.9550   14.7660   21.0380 C.ar  123  PHE123     -0.0042
     96  CE1        3.4470   15.9160   21.6250 C.ar  123  PHE123     -0.0003
     97  CE2        5.8800   16.0910   21.5270 C.ar  123  PHE123     -0.0003
     98  CZ         4.6300   16.6470   21.8440 C.ar  123  PHE123     -0.0000
     99  N          6.6980   13.4340   17.7250 N.am  124  TYR124     -0.1976
    100  CA         7.5280   14.5140   17.2040 C.3   124  TYR124      0.1639
    101  C          7.1950   14.9000   15.7700 C.2   124  TYR124      0.2290
    102  O          7.6700   15.9390   15.2640 O.2   124  TYR124     -0.2864
    103  CB         9.0360   14.2450   17.4070 C.3   124  TYR124      0.0560
    104  CG         9.3830   13.9250   18.8450 C.ar  124  TYR124     -0.0198
    105  CD1        9.4920   14.9400   19.8130 C.ar  124  TYR124     -0.0009
    106  CD2        9.5830   12.5930   19.2560 C.ar  124  TYR124     -0.0009
    107  CE1        9.7970   14.6210   21.1860 C.ar  124  TYR124      0.0417
    108  CE2        9.8550   12.2760   20.5940 C.ar  124  TYR124      0.0417
    109  CZ         9.9820   13.2920   21.5490 C.ar  124  TYR124      0.1957
    110  OH        10.2700   12.9320   22.8640 O.3   124  TYR124     -0.2866
    111  N          1.3900   20.9060   25.5050 N.3   135  VAL135     -0.1245
    112  CA         0.6970   19.6710   25.9150 C.3   135  VAL135      0.1561
    113  C          0.2170   19.9280   27.3060 C.2   135  VAL135      0.2260
    114  O          1.0320   20.2010   28.1750 O.2   135  VAL135     -0.2867
    115  CB         1.6610   18.4230   25.8650 C.3   135  VAL135      0.0252
    116  CG1        0.9500   17.1610   26.3770 C.3   135  VAL135      0.0019
    117  CG2        2.1750   18.2230   24.4360 C.3   135  VAL135      0.0019
    118  N          3.3130   21.2640   29.3440 N.3   147  TRP147     -0.1241
    119  CA         4.6100   21.0250   28.6840 C.3   147  TRP147      0.1605
    120  C          4.6080   21.8850   27.4360 C.2   147  TRP147      0.2264
    121  O          3.5370   22.0650   26.7720 O.2   147  TRP147     -0.2867
    122  CB         4.7380   19.5000   28.3210 C.3   147  TRP147      0.0550
    123  CG         5.9850   19.0120   27.5280 C.ar  147  TRP147      0.0003
    124  CD1        7.0710   18.3070   28.0280 C.ar  147  TRP147      0.0946
    125  CD2        6.2050   19.1160   26.1180 C.ar  147  TRP147      0.0152
    126  NE1        7.9510   18.0160   27.0150 N.ar  147  TRP147     -0.2442
    127  CE2        7.4490   18.5060   25.8360 C.ar  147  TRP147      0.0810
    128  CE3        5.4890   19.7020   25.0590 C.ar  147  TRP147      0.0012
    129  CZ2        7.9710   18.4490   24.5580 C.ar  147  TRP147      0.0191
    130  CZ3        6.0140   19.6370   23.7800 C.ar  147  TRP147      0.0001
    131  CH2        7.2280   19.0310   23.5390 C.ar  147  TRP147      0.0015
    132  N         -5.2390   14.3420   28.0610 N.3   169  THR169     -0.1218
    133  CA        -4.1510   15.0640   27.3940 C.3   169  THR169      0.1862
    134  C         -4.6910   15.9240   26.2560 C.2   169  THR169      0.2287
    135  O         -5.5140   15.4600   25.4820 O.2   169  THR169     -0.2866
    136  CB        -3.1280   14.0570   26.8270 C.3   169  THR169      0.1770
    137  OG1       -2.5760   13.2790   27.8800 O.3   169  THR169     -0.2211
    138  CG2       -1.9170   14.7960   26.1980 C.3   169  THR169      0.0375
    139  N         -3.1050   18.1500   23.0830 N.3   171  VAL171     -0.1245
    140  CA        -1.9120   18.5470   22.3760 C.3   171  VAL171      0.1561
    141  C         -2.3390   19.7170   21.5060 C.2   171  VAL171      0.2260
    142  O         -3.1580   19.5600   20.5830 O.2   171  VAL171     -0.2867
    143  CB        -1.3540   17.4070   21.5190 C.3   171  VAL171      0.0252
    144  CG1       -0.1730   17.9050   20.5690 C.3   171  VAL171      0.0019
    145  CG2       -0.9360   16.2160   22.4260 C.3   171  VAL171      0.0019
@<TRIPOS>BOND
     1   102   101    2
     2   101   100    1
     3     1     2    1
     4     7     6    1
     5    87    85    1
     6     6     5    1
     7     6     8    1
     8   100   103    1
     9   100    99    1
    10    84    83    2
    11   103   104    1
    12     5     2    1
    13     2     3    1
    14    83    82    1
    15    99    90   am
    16    91    90    2
    17    77    78    1
    18     3     4    2
    19    90    89    1
    20    88    89    1
    21    85    82    1
    22    85    86    1
    23    81    82    1
    24    81    79   am
    25    89    92    1
    26   104   106   ar
    27   104   105   ar
    28    78    79    1
    29   106   108   ar
    30    79    80    2
    31     9    10    1
    32   105   107   ar
    33    15    14    2
    34    16    14   am
    35    92    93    1
    36    14    13    1
    37   144   143    1
    38   142   141    2
    39   108   109   ar
    40    93    95   ar
    41    93    94   ar
    42    10    13    1
    43    10    11    1
    44    95    97   ar
    45    94    96   ar
    46   107   109   ar
    47    75    74    2
    48    17    11   am
    49    17    18    1
    50    21    22    1
    51    21    18    1
    52   141   140    1
    53   143   140    1
    54   143   145    1
    55    97    98   ar
    56   109   110    1
    57    96    98   ar
    58    11    12    2
    59    18    19    1
    60   140   139    1
    61    19    20    2
    62    74    73    1
    63    76    73    1
    64    73    72    1
    65   131   130   ar
    66   131   129   ar
    67   130   128   ar
    68    32    29    1
    69    32    33    1
    70    28    29    1
    71    35    33   ar
    72   117   115    1
    73   129   127   ar
    74    29    30    1
    75    33    34   ar
    76    23    24    1
    77   128   125   ar
    78   135   134    2
    79   111   112    1
    80   127   125   ar
    81   127   126   ar
    82   115   112    1
    83   115   116    1
    84   112   113    1
    85    67    66    2
    86   125   123   ar
    87    30    31    2
    88   138   136    1
    89   134   133    1
    90    27    24    1
    91    24    25    1
    92    25    26    2
    93   121   120    2
    94   136   133    1
    95   136   137    1
    96    66    65    1
    97   126   124   ar
    98    70    69    1
    99   113   114    2
   100    68    65    1
   101    68    69    1
   102   133   132    1
   103   120   119    1
   104   123   124   ar
   105   123   122    1
   106    71    69    1
   107    55    54    1
   108    65    64    1
   109    54    53    1
   110   122   119    1
   111   119   118    1
   112    53    52    1
   113    63    61    1
   114    36    37    1
   115    59    58    2
   116    42    40    1
   117    44    45    1
   118    44    38   am
   119    52    49    1
   120    58    57    1
   121    57    60    1
   122    57    56    1
   123    37    40    1
   124    37    38    1
   125    61    60    1
   126    61    62    1
   127    45    46    1
   128    40    41    1
   129    46    47    2
   130    46    48   am
   131    38    39    2
   132    48    49    1
   133    49    50    1
   134    41    43    1
   135    50    51    2
