@<TRIPOS>MOLECULE
tmp/1uyiA00.pdb
 169 159 0 0 0
SMALL
GASTEIGER

@<TRIPOS>ATOM
      1  N         -0.7890   11.5630   16.4610 N.3    33  LEU33      -0.1245
      2  CA        -1.3710   12.1490   17.6900 C.3    33  LEU33       0.1561
      3  C         -2.6450   11.3670   18.0740 C.2    33  LEU33       0.2260
      4  O         -2.8180   10.9650   19.2350 O.2    33  LEU33      -0.2867
      5  CB        -1.6840   13.6640   17.4790 C.3    33  LEU33       0.0270
      6  CG        -0.4510   14.5260   17.1880 C.3    33  LEU33       0.0019
      7  CD1       -0.8120   15.9900   17.0070 C.3    33  LEU33       0.0001
      8  CD2        0.6920   14.3160   18.2140 C.3    33  LEU33       0.0001
      9  N         -1.5600    8.0760   19.4280 N.3    36  ASN36      -0.1225
     10  CA        -1.0900    8.2560   20.8180 C.3    36  ASN36       0.1785
     11  C         -2.2390    8.3560   21.8510 C.2    36  ASN36       0.2597
     12  O         -2.1680    7.7840   22.9510 O.2    36  ASN36      -0.2718
     13  CB        -0.1580    9.4800   20.9470 C.3    36  ASN36       0.1169
     14  CG         1.2010    9.2320   20.3110 C.2    36  ASN36       0.2627
     15  OD1        1.5910    8.0570   20.0980 O.2    36  ASN36      -0.2716
     16  ND2        1.9200   10.3250   19.9710 N.am   36  ASN36      -0.0877
     17  N         -3.2780    9.0760   21.4780 N.am   37  SER37      -0.1952
     18  CA        -4.4630    9.2580   22.3050 C.3    37  SER37       0.1924
     19  C         -5.1860    7.9320   22.4870 C.2    37  SER37       0.2314
     20  O         -5.6110    7.6110   23.5690 O.2    37  SER37      -0.2863
     21  CB        -5.4120   10.2290   21.6130 C.3    37  SER37       0.2116
     22  OG        -4.9070   11.5370   21.7420 O.3    37  SER37      -0.2180
     23  N         -3.3150    5.8260   25.0350 N.3    40  ALA40      -0.1245
     24  CA        -3.6070    6.3290   26.3740 C.3    40  ALA40       0.1562
     25  C         -5.0170    6.0120   26.8580 C.2    40  ALA40       0.2260
     26  O         -5.2200    5.7450   28.0320 O.2    40  ALA40      -0.2867
     27  CB        -3.3510    7.8110   26.4280 C.3    40  ALA40       0.0290
     28  N         -7.6240   14.1450   24.4440 N.3    78  ASP78      -0.1239
     29  CA        -8.1820   12.8760   24.8410 C.3    78  ASP78       0.1674
     30  C         -8.5160   12.8280   26.3240 C.2    78  ASP78       0.2266
     31  O         -8.0680   13.6520   27.0820 O.2    78  ASP78      -0.2867
     32  CB        -7.2680   11.7080   24.3820 C.3    78  ASP78       0.1410
     33  CG        -5.9060   11.7440   25.0280 C.2    78  ASP78       0.3668
     34  OD1       -5.8400   11.4910   26.2570 O.co2  78  ASP78      -0.2456
     35  OD2       -4.8430   11.9830   24.4080 O.co2  78  ASP78      -0.2456
     36  N         -5.1770    8.1990   29.8070 N.3    81  ILE81      -0.1231
     37  CA        -4.6060    8.0410   31.1310 C.3    81  ILE81       0.1692
     38  C         -3.9270    9.3120   31.6770 C.2    81  ILE81       0.2593
     39  O         -3.9050    9.5420   32.8920 O.2    81  ILE81      -0.2718
     40  CB        -3.6600    6.7980   31.1620 C.3    81  ILE81       0.0266
     41  CG1       -3.3010    6.4440   32.6160 C.3    81  ILE81       0.0019
     42  CG2       -2.3830    7.0420   30.3480 C.3    81  ILE81       0.0020
     43  CD1       -3.1150    4.9000   32.9000 C.3    81  ILE81       0.0001
     44  N         -3.3470   10.1170   30.7780 N.am   82  GLY82      -0.1942
     45  CA        -2.6460   11.3300   31.1800 C.3    82  GLY82       0.2014
     46  C         -1.2090   11.0070   31.5320 C.2    82  GLY82       0.2638
     47  O         -0.8380    9.8300   31.7130 O.2    82  GLY82      -0.2714
     48  N         -0.3970   12.0670   31.6320 N.am   83  MET83      -0.1976
     49  CA         1.0250   11.9630   31.9790 C.3    83  MET83       0.1605
     50  C          1.3360   12.6280   33.3340 C.2    83  MET83       0.2287
     51  O          0.8090   13.7210   33.6840 O.2    83  MET83      -0.2864
     52  CB         1.8620   12.5790   30.8630 C.3    83  MET83       0.0413
     53  CG         1.9210   11.6950   29.6100 C.3    83  MET83       0.0598
     54  SD         2.8570   12.3000   28.2510 S.3    83  MET83      -0.1393
     55  CE         1.7320   13.7470   27.7120 C.3    83  MET83       0.0692
     56  N          6.6310   11.4110   33.9100 N.3    87  ASP87      -0.1225
     57  CA         6.5520   11.1770   32.4640 C.3    87  ASP87       0.1805
     58  C          7.2240   12.3270   31.6810 C.2    87  ASP87       0.2597
     59  O          8.1130   12.1060   30.8560 O.2    87  ASP87      -0.2718
     60  CB         5.0700   11.0390   31.9960 C.3    87  ASP87       0.1424
     61  CG         4.4220    9.6940   32.3770 C.2    87  ASP87       0.3668
     62  OD1        5.1650    8.6730   32.4020 O.co2  87  ASP87      -0.2456
     63  OD2        3.1830    9.5610   32.6790 O.co2  87  ASP87      -0.2456
     64  N          6.7430   13.5550   31.9180 N.am   88  LEU88      -0.1979
     65  CA         7.1630   14.7230   31.1500 C.3    88  LEU88       0.1596
     66  C          8.6740   14.9540   31.2100 C.2    88  LEU88       0.2287
     67  O          9.2760   15.2190   30.2110 O.2    88  LEU88      -0.2864
     68  CB         6.3890   16.0100   31.5940 C.3    88  LEU88       0.0297
     69  CG         4.8750   15.9740   31.4170 C.3    88  LEU88       0.0022
     70  CD1        4.2040   17.2680   31.9790 C.3    88  LEU88       0.0001
     71  CD2        4.5240   15.7050   29.9550 C.3    88  LEU88       0.0001
     72  N         10.5490   10.0130   31.9450 N.3    91  ASN91      -0.1225
     73  CA        10.1820    8.7940   31.2120 C.3    91  ASN91       0.1785
     74  C         10.0790    8.9500   29.7020 C.2    91  ASN91       0.2597
     75  O         10.5270    8.0650   28.9660 O.2    91  ASN91      -0.2718
     76  CB         8.9020    8.1910   31.7740 C.3    91  ASN91       0.1169
     77  CG         9.0430    7.8150   33.2330 C.2    91  ASN91       0.2627
     78  OD1       10.1160    7.4570   33.7040 O.2    91  ASN91      -0.2716
     79  ND2        7.9590    7.8700   33.9430 N.am   91  ASN91      -0.0877
     80  N          9.4720   10.0500   29.2490 N.am   92  LEU92      -0.1980
     81  CA         9.3840   10.3430   27.8340 C.3    92  LEU92       0.1596
     82  C         10.7630   10.3690   27.2160 C.2    92  LEU92       0.2287
     83  O         10.9680    9.7870   26.1730 O.2    92  LEU92      -0.2864
     84  CB         8.7300   11.7180   27.5940 C.3    92  LEU92       0.0297
     85  CG         7.2280   11.8260   27.8260 C.3    92  LEU92       0.0022
     86  CD1        6.7430   13.2510   27.6500 C.3    92  LEU92       0.0001
     87  CD2        6.4810   10.8210   26.9150 C.3    92  LEU92       0.0001
     88  N         12.1230    6.8340   26.9570 N.3    95  ILE95      -0.1231
     89  CA        11.4520    6.1460   25.8540 C.3    95  ILE95       0.1692
     90  C         11.9520    6.7280   24.5250 C.2    95  ILE95       0.2591
     91  O         12.3290    5.9860   23.6090 O.2    95  ILE95      -0.2718
     92  CB         9.8980    6.3180   25.9920 C.3    95  ILE95       0.0266
     93  CG1        9.3120    5.3980   27.0820 C.3    95  ILE95       0.0019
     94  CG2        9.1760    6.1230   24.6460 C.3    95  ILE95       0.0020
     95  CD1        7.9910    5.9680   27.7540 C.3    95  ILE95       0.0001
     96  N         11.9560    8.0470   24.4030 N.am   96  ALA96      -0.1980
     97  CA        12.2520    8.6870   23.1210 C.3    96  ALA96       0.1597
     98  C         13.7320    8.5410   22.6610 C.2    96  ALA96       0.2287
     99  O         14.0360    8.6380   21.4600 O.2    96  ALA96      -0.2864
    100  CB        11.8370   10.1410   23.1560 C.3    96  ALA96       0.0319
    101  N          7.7820    4.6940   18.3680 N.3   120  GLY120     -0.1210
    102  CA         7.2480    5.2900   19.5840 C.3   120  GLY120      0.1956
    103  C          7.5760    6.7520   19.8060 C.2   120  GLY120      0.2611
    104  O          7.5220    7.2560   20.9480 O.2   120  GLY120     -0.2717
    105  N          7.9100    7.4340   18.7140 N.am  121  VAL121     -0.1979
    106  CA         8.2570    8.8480   18.7480 C.3   121  VAL121      0.1595
    107  C          7.4280    9.6750   17.7520 C.2   121  VAL121      0.2287
    108  O          7.8200   10.8140   17.4060 O.2   121  VAL121     -0.2864
    109  CB         9.8070    9.1030   18.5690 C.3   121  VAL121      0.0276
    110  CG1       10.5560    8.5680   19.7680 C.3   121  VAL121      0.0022
    111  CG2       10.3770    8.4800   17.2810 C.3   121  VAL121      0.0022
    112  N          4.8710   11.4510   18.1830 N.3   123  PHE123     -0.1227
    113  CA         4.5640   12.7850   18.7150 C.3   123  PHE123      0.1736
    114  C          5.3700   13.8900   18.0270 C.2   123  PHE123      0.2595
    115  O          4.8050   14.9160   17.6440 O.2   123  PHE123     -0.2718
    116  CB         4.8320   12.8630   20.2140 C.3   123  PHE123      0.0547
    117  CG         4.7310   14.2860   20.7630 C.ar  123  PHE123     -0.0202
    118  CD1        3.4890   14.8210   21.0820 C.ar  123  PHE123     -0.0042
    119  CD2        5.8940   15.0750   20.9090 C.ar  123  PHE123     -0.0042
    120  CE1        3.3580   16.1270   21.5420 C.ar  123  PHE123     -0.0003
    121  CE2        5.7810   16.3820   21.4000 C.ar  123  PHE123     -0.0003
    122  CZ         4.5030   16.9080   21.7110 C.ar  123  PHE123     -0.0000
    123  N          6.6800   13.6760   17.8470 N.am  124  TYR124     -0.1976
    124  CA         7.5300   14.7280   17.2620 C.3   124  TYR124      0.1639
    125  C          7.1430   15.0690   15.8080 C.2   124  TYR124      0.2290
    126  O          7.4960   16.1430   15.2650 O.2   124  TYR124     -0.2864
    127  CB         9.0310   14.4880   17.4990 C.3   124  TYR124      0.0560
    128  CG         9.3880   14.1980   18.9570 C.ar  124  TYR124     -0.0198
    129  CD1        9.5530   15.2320   19.8870 C.ar  124  TYR124     -0.0009
    130  CD2        9.5410   12.8750   19.4100 C.ar  124  TYR124     -0.0009
    131  CE1        9.8680   14.9400   21.2770 C.ar  124  TYR124      0.0417
    132  CE2        9.8480   12.5830   20.7510 C.ar  124  TYR124      0.0417
    133  CZ        10.0010   13.6070   21.6770 C.ar  124  TYR124      0.1957
    134  OH        10.3190   13.2710   23.0120 O.3   124  TYR124     -0.2866
    135  N          1.4740   20.9660   25.5890 N.3   135  VAL135     -0.1245
    136  CA         0.7750   19.7410   25.9560 C.3   135  VAL135      0.1561
    137  C          0.2330   19.8910   27.3490 C.2   135  VAL135      0.2260
    138  O          0.9840   20.0970   28.2740 O.2   135  VAL135     -0.2867
    139  CB         1.7390   18.5030   25.8720 C.3   135  VAL135      0.0252
    140  CG1        1.0660   17.2140   26.4180 C.3   135  VAL135      0.0019
    141  CG2        2.2140   18.3240   24.4320 C.3   135  VAL135      0.0019
    142  N          3.3290   21.2200   29.3480 N.3   147  TRP147     -0.1241
    143  CA         4.6520   21.0430   28.7260 C.3   147  TRP147      0.1605
    144  C          4.6420   21.9190   27.4980 C.2   147  TRP147      0.2264
    145  O          3.5660   22.1270   26.8940 O.2   147  TRP147     -0.2867
    146  CB         4.7850   19.5400   28.3700 C.3   147  TRP147      0.0550
    147  CG         6.0380   19.0290   27.6220 C.ar  147  TRP147      0.0003
    148  CD1        7.1010   18.2990   28.1500 C.ar  147  TRP147      0.0946
    149  CD2        6.3010   19.1420   26.2040 C.ar  147  TRP147      0.0152
    150  NE1        7.9840   17.9590   27.1430 N.ar  147  TRP147     -0.2442
    151  CE2        7.5190   18.4780   25.9440 C.ar  147  TRP147      0.0810
    152  CE3        5.6210   19.7470   25.1300 C.ar  147  TRP147      0.0012
    153  CZ2        8.0610   18.3890   24.6570 C.ar  147  TRP147      0.0191
    154  CZ3        6.1890   19.6690   23.8360 C.ar  147  TRP147      0.0001
    155  CH2        7.3860   19.0040   23.6240 C.ar  147  TRP147      0.0015
    156  N         -5.1170   14.3370   28.1640 N.3   169  THR169     -0.1218
    157  CA        -4.0210   15.0780   27.5470 C.3   169  THR169      0.1862
    158  C         -4.5640   15.9070   26.3880 C.2   169  THR169      0.2287
    159  O         -5.3570   15.3910   25.6020 O.2   169  THR169     -0.2866
    160  CB        -3.0070   14.0890   27.0170 C.3   169  THR169      0.1770
    161  OG1       -2.4170   13.3630   28.1190 O.3   169  THR169     -0.2211
    162  CG2       -1.8360   14.8390   26.3190 C.3   169  THR169      0.0375
    163  N         -3.0390   18.2420   23.1540 N.3   171  VAL171     -0.1245
    164  CA        -1.8600   18.6220   22.4090 C.3   171  VAL171      0.1561
    165  C         -2.2920   19.7730   21.5270 C.2   171  VAL171      0.2260
    166  O         -3.0920   19.5910   20.5980 O.2   171  VAL171     -0.2867
    167  CB        -1.3490   17.4700   21.5320 C.3   171  VAL171      0.0252
    168  CG1       -0.2480   17.9560   20.6290 C.3   171  VAL171      0.0019
    169  CG2       -0.9020   16.2690   22.4340 C.3   171  VAL171      0.0019
@<TRIPOS>BOND
     1   126   125    2
     2   125   124    1
     3     1     2    1
     4     7     6    1
     5     6     5    1
     6     6     8    1
     7   124   127    1
     8   124   123    1
     9   111   109    1
    10   108   107    2
    11     5     2    1
    12   127   128    1
    13   115   114    2
    14     2     3    1
    15   107   106    1
    16   123   114   am
    17   114   113    1
    18     3     4    2
    19   112   113    1
    20   101   102    1
    21   109   106    1
    22   109   110    1
    23   105   106    1
    24   105   103   am
    25   113   116    1
    26   128   130   ar
    27   128   129   ar
    28   130   132   ar
    29     9    10    1
    30   102   103    1
    31   103   104    2
    32   129   131   ar
    33    16    14   am
    34    15    14    2
    35   116   117    1
    36    14    13    1
    37   166   165    2
    38   168   167    1
    39   132   133   ar
    40   117   119   ar
    41   117   118   ar
    42    10    13    1
    43    10    11    1
    44   119   121   ar
    45   118   120   ar
    46   131   133   ar
    47   121   122   ar
    48    99    98    2
    49    17    11   am
    50    17    18    1
    51   165   164    1
    52   167   164    1
    53   167   169    1
    54   120   122   ar
    55    21    22    1
    56    21    18    1
    57   133   134    1
    58    11    12    2
    59    18    19    1
    60   164   163    1
    61    19    20    2
    62    98    97    1
    63    97   100    1
    64    97    96    1
    65    91    90    2
    66   155   154   ar
    67   155   153   ar
    68   154   152   ar
    69    32    29    1
    70    32    33    1
    71    96    90   am
    72    35    33   ar
    73   141   139    1
    74    28    29    1
    75    90    89    1
    76    94    92    1
    77   153   151   ar
    78    29    30    1
    79    33    34   ar
    80    23    24    1
    81   152   149   ar
    82   135   136    1
    83   159   158    2
    84    89    92    1
    85    89    88    1
    86   139   136    1
    87   139   140    1
    88   151   149   ar
    89   151   150   ar
    90   136   137    1
    91    92    93    1
    92    83    82    2
    93   149   147   ar
    94   162   160    1
    95    30    31    2
    96    24    27    1
    97    24    25    1
    98   158   157    1
    99    25    26    2
   100   145   144    2
   101    87    85    1
   102   160   157    1
   103   160   161    1
   104    93    95    1
   105   150   148   ar
   106    82    81    1
   107   137   138    2
   108   144   143    1
   109   157   156    1
   110    84    85    1
   111    84    81    1
   112   147   148   ar
   113   147   146    1
   114    86    85    1
   115    55    54    1
   116    81    80    1
   117    54    53    1
   118   146   143    1
   119   143   142    1
   120    75    74    2
   121    80    74   am
   122    53    52    1
   123    74    73    1
   124    36    37    1
   125    71    69    1
   126    67    66    2
   127    42    40    1
   128    44    45    1
   129    44    38   am
   130    59    58    2
   131    52    49    1
   132    37    40    1
   133    37    38    1
   134    65    66    1
   135    65    68    1
   136    65    64    1
   137    40    41    1
   138    45    46    1
   139    73    76    1
   140    73    72    1
   141    69    68    1
   142    69    70    1
   143    46    48   am
   144    46    47    2
   145    48    49    1
   146    38    39    2
   147    58    64   am
   148    58    57    1
   149    76    77    1
   150    49    50    1
   151    60    61    1
   152    60    57    1
   153    61    62   ar
   154    61    63   ar
   155    57    56    1
   156    41    43    1
   157    77    78    2
   158    77    79   am
   159    50    51    2
