@<TRIPOS>MOLECULE
tmp/1uykA00.pdb
 141 131 0 0 0
SMALL
GASTEIGER

@<TRIPOS>ATOM
      1  N         -0.8520   11.3120   16.5780 N.3    33  LEU33      -0.1245
      2  CA        -1.4230   11.9470   17.7720 C.3    33  LEU33       0.1561
      3  C         -2.6940   11.2430   18.1870 C.2    33  LEU33       0.2260
      4  O         -2.8740   11.0090   19.3170 O.2    33  LEU33      -0.2867
      5  CB        -1.6970   13.4660   17.5260 C.3    33  LEU33       0.0270
      6  CG        -0.4410   14.3050   17.2160 C.3    33  LEU33       0.0019
      7  CD1       -0.9140   15.7210   17.0530 C.3    33  LEU33       0.0001
      8  CD2        0.6930   14.1150   18.2620 C.3    33  LEU33       0.0001
      9  N         -1.6990    7.9320   19.5080 N.3    36  ASN36      -0.1225
     10  CA        -1.1790    8.0850   20.8610 C.3    36  ASN36       0.1785
     11  C         -2.3990    8.1930   21.8040 C.2    36  ASN36       0.2597
     12  O         -2.3880    7.6810   22.9640 O.2    36  ASN36      -0.2718
     13  CB        -0.3400    9.3590   20.9590 C.3    36  ASN36       0.1169
     14  CG         1.1470    9.1690   20.4750 C.2    36  ASN36       0.2627
     15  OD1        1.5930    8.0500   19.9440 O.2    36  ASN36      -0.2716
     16  ND2        1.9480   10.2900   20.6170 N.am   36  ASN36      -0.0877
     17  N         -3.4580    8.8860   21.3430 N.am   37  SER37      -0.1952
     18  CA        -4.5630    9.1430   22.2010 C.3    37  SER37       0.1924
     19  C         -5.2320    7.7360   22.4180 C.2    37  SER37       0.2314
     20  O         -5.4370    7.2450   23.5280 O.2    37  SER37      -0.2863
     21  CB        -5.4480   10.1970   21.5490 C.3    37  SER37       0.2116
     22  OG        -4.8610   11.4580   21.7220 O.3    37  SER37      -0.2180
     23  N         -3.4840    5.6840   25.0380 N.3    40  ALA40      -0.1245
     24  CA        -3.8140    6.2820   26.3730 C.3    40  ALA40       0.1562
     25  C         -5.2260    5.9450   26.8610 C.2    40  ALA40       0.2260
     26  O         -5.4100    5.7720   28.0780 O.2    40  ALA40      -0.2867
     27  CB        -3.6270    7.8170   26.3600 C.3    40  ALA40       0.0290
     28  N         -7.9870   14.3170   24.4970 N.3    78  ASP78      -0.1239
     29  CA        -8.3990   12.9600   24.8110 C.3    78  ASP78       0.1674
     30  C         -8.7220   12.8540   26.3770 C.2    78  ASP78       0.2266
     31  O         -8.1310   13.5290   27.2090 O.2    78  ASP78      -0.2867
     32  CB        -7.4750   11.8030   24.1730 C.3    78  ASP78       0.1410
     33  CG        -6.2010   11.5990   24.9190 C.2    78  ASP78       0.3668
     34  OD1       -6.1220   11.2020   26.0850 O.co2  78  ASP78      -0.2456
     35  OD2       -5.1220   11.8350   24.4160 O.co2  78  ASP78      -0.2456
     36  N         -5.3680    8.0460   30.0110 N.3    81  ILE81      -0.1231
     37  CA        -4.7420    7.9980   31.3370 C.3    81  ILE81       0.1692
     38  C         -4.0210    9.2820   31.7970 C.2    81  ILE81       0.2593
     39  O         -3.8080    9.4500   33.0340 O.2    81  ILE81      -0.2718
     40  CB        -3.7770    6.8240   31.3970 C.3    81  ILE81       0.0266
     41  CG1       -3.4410    6.5530   32.8320 C.3    81  ILE81       0.0019
     42  CG2       -2.5610    7.0770   30.4310 C.3    81  ILE81       0.0020
     43  CD1       -3.4770    5.1540   33.0810 C.3    81  ILE81       0.0001
     44  N         -3.6170   10.1500   30.8110 N.am   82  GLY82      -0.1942
     45  CA        -2.7510   11.3270   31.0470 C.3    82  GLY82       0.2014
     46  C         -1.3160   10.9770   31.4110 C.2    82  GLY82       0.2638
     47  O         -0.8350    9.8100   31.3590 O.2    82  GLY82      -0.2714
     48  N         -0.6280   12.0400   31.7660 N.am   83  MET83      -0.1976
     49  CA         0.7890   11.9750   31.9400 C.3    83  MET83       0.1605
     50  C          1.1730   12.6140   33.3170 C.2    83  MET83       0.2287
     51  O          0.6660   13.6890   33.7090 O.2    83  MET83      -0.2864
     52  CB         1.4820   12.6500   30.7410 C.3    83  MET83       0.0413
     53  CG         1.6920   11.7390   29.5710 C.3    83  MET83       0.0598
     54  SD         2.4390   12.5100   28.1750 S.3    83  MET83      -0.1393
     55  CE         1.3080   13.7660   28.0070 C.3    83  MET83       0.0692
     56  N          6.7500   13.5950   31.9010 N.3    88  LEU88      -0.1245
     57  CA         7.1390   14.8310   31.2040 C.3    88  LEU88       0.1561
     58  C          8.6870   15.2220   31.1720 C.2    88  LEU88       0.2260
     59  O          9.3210   15.5350   30.1490 O.2    88  LEU88      -0.2867
     60  CB         6.2770   15.9950   31.6930 C.3    88  LEU88       0.0270
     61  CG         4.8650   15.8930   31.1590 C.3    88  LEU88       0.0019
     62  CD1        4.2570   17.2010   31.5440 C.3    88  LEU88       0.0001
     63  CD2        4.7420   15.6630   29.6390 C.3    88  LEU88       0.0001
     64  N          9.5050    9.9480   29.4740 N.3    92  LEU92      -0.1245
     65  CA         9.2330    9.8600   27.9920 C.3    92  LEU92       0.1561
     66  C         10.5010    9.9800   27.1220 C.2    92  LEU92       0.2260
     67  O         10.5500    9.4860   25.9980 O.2    92  LEU92      -0.2867
     68  CB         8.0850   10.8140   27.4820 C.3    92  LEU92       0.0270
     69  CG         6.7240   10.4450   28.1480 C.3    92  LEU92       0.0019
     70  CD1        5.8070   11.5180   27.9700 C.3    92  LEU92       0.0001
     71  CD2        5.9620    9.0200   27.9760 C.3    92  LEU92       0.0001
     72  N         12.2490    6.6990   27.3010 N.3    95  ILE95      -0.1245
     73  CA        11.6770    5.7050   26.3980 C.3    95  ILE95       0.1561
     74  C         11.9910    5.9940   24.9360 C.2    95  ILE95       0.2260
     75  O         12.3730    5.1020   24.1360 O.2    95  ILE95      -0.2867
     76  CB        10.1740    5.5380   26.7280 C.3    95  ILE95       0.0252
     77  CG1        9.9600    4.7960   28.1180 C.3    95  ILE95       0.0019
     78  CG2        9.4230    4.6920   25.7810 C.3    95  ILE95       0.0019
     79  CD1       11.0970    3.7700   28.6700 C.3    95  ILE95       0.0001
     80  N          7.9540    4.3130   18.1640 N.3   120  GLY120     -0.1225
     81  CA         7.5170    4.7600   19.4460 C.3   120  GLY120      0.1811
     82  C          7.6550    6.2310   19.5580 C.2   120  GLY120      0.2280
     83  O          7.4260    6.6830   20.6510 O.2   120  GLY120     -0.2866
     84  N          4.9180   11.3050   18.4340 N.3   123  PHE123     -0.1227
     85  CA         4.6010   12.5870   19.0240 C.3   123  PHE123      0.1736
     86  C          5.3510   13.7330   18.2830 C.2   123  PHE123      0.2595
     87  O          4.8460   14.8110   18.0000 O.2   123  PHE123     -0.2718
     88  CB         4.9240   12.6490   20.5870 C.3   123  PHE123      0.0547
     89  CG         4.8240   14.0550   21.1100 C.ar  123  PHE123     -0.0202
     90  CD1        3.5890   14.6820   21.2970 C.ar  123  PHE123     -0.0042
     91  CD2        5.9050   14.8170   21.1610 C.ar  123  PHE123     -0.0042
     92  CE1        3.4710   15.9730   21.6320 C.ar  123  PHE123     -0.0003
     93  CE2        5.7530   16.0960   21.4850 C.ar  123  PHE123     -0.0003
     94  CZ         4.5260   16.6630   21.6990 C.ar  123  PHE123     -0.0000
     95  N          6.6130   13.4650   18.0170 N.am  124  TYR124     -0.1976
     96  CA         7.4800   14.4430   17.4540 C.3   124  TYR124      0.1639
     97  C          7.1430   14.8010   16.0700 C.2   124  TYR124      0.2290
     98  O          7.6370   15.8010   15.6390 O.2   124  TYR124     -0.2864
     99  CB         8.9660   14.0780   17.6200 C.3   124  TYR124      0.0560
    100  CG         9.2560   13.8990   19.1180 C.ar  124  TYR124     -0.0198
    101  CD1        9.3830   15.0260   19.9900 C.ar  124  TYR124     -0.0009
    102  CD2        9.3440   12.6080   19.6800 C.ar  124  TYR124     -0.0009
    103  CE1        9.5600   14.8660   21.3570 C.ar  124  TYR124      0.0417
    104  CE2        9.5250   12.4640   21.0280 C.ar  124  TYR124      0.0417
    105  CZ         9.6210   13.5940   21.8420 C.ar  124  TYR124      0.1957
    106  OH         9.7720   13.4140   23.1380 O.3   124  TYR124     -0.2866
    107  N          1.3260   21.0360   25.5580 N.3   135  VAL135     -0.1245
    108  CA         0.6180   19.8050   25.9510 C.3   135  VAL135      0.1561
    109  C          0.0000   20.0100   27.3160 C.2   135  VAL135      0.2260
    110  O          0.7490   20.3380   28.2150 O.2   135  VAL135     -0.2867
    111  CB         1.5750   18.6070   25.9320 C.3   135  VAL135      0.0252
    112  CG1        0.9940   17.3220   26.8940 C.3   135  VAL135      0.0019
    113  CG2        1.8080   18.2990   24.4450 C.3   135  VAL135      0.0019
    114  N          3.2290   21.3100   29.6190 N.3   147  TRP147     -0.1241
    115  CA         4.5600   21.2270   28.8950 C.3   147  TRP147      0.1605
    116  C          4.4640   21.9420   27.5810 C.2   147  TRP147      0.2264
    117  O          3.3590   21.9550   27.0390 O.2   147  TRP147     -0.2867
    118  CB         4.8200   19.7780   28.6730 C.3   147  TRP147      0.0550
    119  CG         5.9380   19.2550   27.8570 C.ar  147  TRP147      0.0003
    120  CD1        6.9230   18.4500   28.3120 C.ar  147  TRP147      0.0946
    121  CD2        6.1580   19.3790   26.4030 C.ar  147  TRP147      0.0152
    122  NE1        7.7600   18.0940   27.2860 N.ar  147  TRP147     -0.2442
    123  CE2        7.3110   18.6300   26.1000 C.ar  147  TRP147      0.0810
    124  CE3        5.5230   20.0810   25.3530 C.ar  147  TRP147      0.0012
    125  CZ2        7.7940   18.4990   24.8020 C.ar  147  TRP147      0.0191
    126  CZ3        5.9620   19.9140   24.0920 C.ar  147  TRP147      0.0001
    127  CH2        7.0820   19.1250   23.8090 C.ar  147  TRP147      0.0015
    128  N         -5.2040   14.5460   28.2840 N.3   169  THR169     -0.1218
    129  CA        -4.0990   15.2570   27.6100 C.3   169  THR169      0.1862
    130  C         -4.7310   16.0790   26.4090 C.2   169  THR169      0.2287
    131  O         -5.6330   15.6310   25.6960 O.2   169  THR169     -0.2866
    132  CB        -3.1550   14.1480   27.1130 C.3   169  THR169      0.1770
    133  OG1       -2.8030   13.3470   28.2090 O.3   169  THR169     -0.2211
    134  CG2       -1.7380   14.6170   26.4270 C.3   169  THR169      0.0375
    135  N         -3.2970   18.1640   23.1880 N.3   171  VAL171     -0.1245
    136  CA        -2.0920   18.5290   22.3770 C.3   171  VAL171      0.1561
    137  C         -2.3310   19.8380   21.5490 C.2   171  VAL171      0.2260
    138  O         -3.0020   19.8000   20.4730 O.2   171  VAL171     -0.2867
    139  CB        -1.5030   17.3080   21.5330 C.3   171  VAL171      0.0252
    140  CG1       -0.3660   17.7350   20.7450 C.3   171  VAL171      0.0019
    141  CG2       -1.0460   16.2100   22.4210 C.3   171  VAL171      0.0019
@<TRIPOS>BOND
     1    98    97    2
     2    97    96    1
     3     1     2    1
     4     7     6    1
     5     6     5    1
     6     6     8    1
     7    96    99    1
     8    96    95    1
     9     5     2    1
    10    99   100    1
    11     2     3    1
    12    87    86    2
    13    95    86   am
    14    80    81    1
    15     3     4    2
    16    86    85    1
    17    84    85    1
    18    85    88    1
    19   100   102   ar
    20   100   101   ar
    21    81    82    1
    22     9    10    1
    23    82    83    2
    24   102   104   ar
    25    15    14    2
    26   101   103   ar
    27   138   137    2
    28    14    16   am
    29    14    13    1
    30    88    89    1
    31   140   139    1
    32    10    13    1
    33    10    11    1
    34   104   105   ar
    35    89    91   ar
    36    89    90   ar
    37    91    93   ar
    38    90    92   ar
    39    17    11   am
    40    17    18    1
    41   103   105   ar
    42    93    94   ar
    43   139   136    1
    44   139   141    1
    45   137   136    1
    46    21    22    1
    47    21    18    1
    48    92    94   ar
    49    11    12    2
    50   105   106    1
    51    18    19    1
    52   136   135    1
    53    19    20    2
    54   127   126   ar
    55   127   125   ar
    56   126   124   ar
    57    75    74    2
    58    32    29    1
    59    32    33    1
    60    35    33   ar
    61   113   111    1
    62    28    29    1
    63   125   123   ar
    64    29    30    1
    65    33    34   ar
    66    74    73    1
    67    23    24    1
    68   124   121   ar
    69   107   108    1
    70   131   130    2
    71    78    76    1
    72   111   108    1
    73   111   112    1
    74   108   109    1
    75    67    66    2
    76   123   121   ar
    77   123   122   ar
    78    27    24    1
    79    24    25    1
    80    30    31    2
    81    73    76    1
    82    73    72    1
    83   121   119   ar
    84   130   129    1
    85   134   132    1
    86    76    77    1
    87    25    26    2
    88   117   116    2
    89   132   129    1
    90   132   133    1
    91    66    65    1
    92   122   120   ar
    93   109   110    2
    94    68    65    1
    95    68    69    1
    96   116   115    1
    97   129   128    1
    98   119   120   ar
    99   119   118    1
   100    70    69    1
   101    71    69    1
   102    65    64    1
   103    55    54    1
   104    77    79    1
   105    54    53    1
   106   118   115    1
   107   115   114    1
   108    53    52    1
   109    63    61    1
   110    36    37    1
   111    59    58    2
   112    42    40    1
   113    52    49    1
   114    44    45    1
   115    44    38   am
   116    45    46    1
   117    61    62    1
   118    61    60    1
   119    58    57    1
   120    57    60    1
   121    57    56    1
   122    37    40    1
   123    37    38    1
   124    47    46    2
   125    40    41    1
   126    46    48   am
   127    48    49    1
   128    38    39    2
   129    49    50    1
   130    41    43    1
   131    50    51    2
