@<TRIPOS>MOLECULE
tmp/1uynA00.pdb
 85 79 0 0 0
SMALL
GASTEIGER

@<TRIPOS>ATOM
      1  N          1.9920   12.9770  185.8300 N.3    59  SER59      -0.1217
      2  CA         1.3350   12.7410  184.5740 C.3    59  SER59       0.1889
      3  C          1.0490   14.0540  183.8540 C.2    59  SER59       0.2288
      4  O          0.4780   14.9560  184.4250 O.2    59  SER59      -0.2866
      5  CB         0.0190   12.0710  184.8760 C.3    59  SER59       0.2089
      6  OG        -0.5830   11.6300  183.6810 O.3    59  SER59      -0.2183
      7  N         -0.6800   15.5540  180.2140 N.3    61  GLN61      -0.1245
      8  CA        -1.2630   15.4680  178.8620 C.3    61  GLN61       0.1566
      9  C         -0.9310   16.7280  178.1020 C.2    61  GLN61       0.2260
     10  O         -1.0140   17.8240  178.6440 O.2    61  GLN61      -0.2867
     11  CB        -2.7620   15.2740  178.8660 C.3    61  GLN61       0.0367
     12  CG        -3.3060   14.3600  179.9840 C.3    61  GLN61       0.0905
     13  CD        -2.6150   13.0360  180.0620 C.2    61  GLN61       0.2608
     14  OE1       -2.7120   12.2330  179.1370 O.2    61  GLN61      -0.2717
     15  NE2       -1.9140   12.7960  181.1610 N.am   61  GLN61      -0.0878
     16  N         -1.3520   18.5730  174.1250 N.3    63  VAL63      -0.1231
     17  CA        -1.7150   18.6500  172.7240 C.3    63  VAL63       0.1692
     18  C         -0.8440   19.7320  172.1130 C.2    63  VAL63       0.2593
     19  O         -0.5200   20.7050  172.7730 O.2    63  VAL63      -0.2718
     20  CB        -3.1760   18.9440  172.5420 C.3    63  VAL63       0.0266
     21  CG1       -3.5000   19.1830  171.0920 C.3    63  VAL63       0.0020
     22  CG2       -3.9940   17.7890  173.0220 C.3    63  VAL63       0.0020
     23  N         -0.4560   19.5470  170.8500 N.am   64  GLY64      -0.1942
     24  CA         0.5520   20.3990  170.2350 C.3    64  GLY64       0.2014
     25  C          0.5150   20.3700  168.7170 C.2    64  GLY64       0.2638
     26  O          0.0160   19.4560  168.1270 O.2    64  GLY64      -0.2714
     27  N          0.9820   21.4250  168.0850 N.am   65  ILE65      -0.1977
     28  CA         1.2380   21.3720  166.6780 C.3    65  ILE65       0.1596
     29  C          2.6670   21.6930  166.3990 C.2    65  ILE65       0.2287
     30  O          3.3070   22.3890  167.1770 O.2    65  ILE65      -0.2864
     31  CB         0.3260   22.3130  165.8820 C.3    65  ILE65       0.0276
     32  CG1        0.5800   23.7550  166.2860 C.3    65  ILE65       0.0022
     33  CG2       -1.1400   21.8860  166.0600 C.3    65  ILE65       0.0022
     34  CD1       -0.4300   24.6760  165.7620 C.3    65  ILE65       0.0001
     35  N          4.1310   24.6440  169.0360 N.3    77  ALA77      -0.1231
     36  CA         3.4120   25.2340  170.1110 C.3    77  ALA77       0.1694
     37  C          2.6070   24.0890  170.7300 C.2    77  ALA77       0.2593
     38  O          1.9160   23.3190  170.0520 O.2    77  ALA77      -0.2718
     39  CB         2.5370   26.3610  169.5960 C.3    77  ALA77       0.0304
     40  N          2.7230   23.9860  172.0470 N.am   78  THR78      -0.1939
     41  CA         2.0960   22.9050  172.8030 C.3    78  THR78       0.2028
     42  C          1.4730   23.4480  174.0610 C.2    78  THR78       0.2642
     43  O          1.9460   24.4080  174.6680 O.2    78  THR78      -0.2714
     44  CB         3.1220   21.8050  173.1330 C.3    78  THR78       0.1808
     45  OG1        3.2700   20.9480  171.9890 O.3    78  THR78      -0.2208
     46  CG2        2.6040   20.8700  174.2070 C.3    78  THR78       0.0379
     47  N          0.3710   22.8340  174.4130 N.am   79  LEU79      -0.1977
     48  CA        -0.3370   23.1580  175.6320 C.3    79  LEU79       0.1596
     49  C         -0.4060   21.9080  176.4810 C.2    79  LEU79       0.2287
     50  O         -0.6770   20.8200  176.0070 O.2    79  LEU79      -0.2864
     51  CB        -1.6960   23.6950  175.3050 C.3    79  LEU79       0.0297
     52  CG        -2.0750   24.8920  176.1520 C.3    79  LEU79       0.0022
     53  CD1       -2.8470   25.9690  175.3670 C.3    79  LEU79       0.0001
     54  CD2       -2.9200   24.3290  177.3180 C.3    79  LEU79       0.0001
     55  N         -1.2920   20.2180  180.3420 N.3    81  MET81      -0.1230
     56  CA        -1.8870   20.1420  181.6570 C.3    81  MET81       0.1702
     57  C         -1.3080   18.9640  182.4390 C.2    81  MET81       0.2593
     58  O         -1.2560   17.8290  181.9790 O.2    81  MET81      -0.2718
     59  CB        -3.3940   20.1250  181.5320 C.3    81  MET81       0.0401
     60  CG        -3.8630   21.3990  180.8010 C.3    81  MET81       0.0596
     61  SD        -5.6870   21.8440  180.7470 S.3    81  MET81      -0.1393
     62  CE        -5.7390   23.3300  179.4800 C.3    81  MET81       0.0692
     63  N         -0.8280   19.2820  183.6310 N.am   82  GLY82      -0.1942
     64  CA        -0.0860   18.3730  184.4660 C.3    82  GLY82       0.2014
     65  C         -0.7270   18.1120  185.8170 C.2    82  GLY82       0.2638
     66  O         -1.3950   18.9310  186.4100 O.2    82  GLY82      -0.2714
     67  N         -0.5120   16.9210  186.3060 N.am   83  ARG83      -0.1977
     68  CA        -0.8260   16.6330  187.6650 C.3    83  ARG83       0.1597
     69  C          0.3290   15.8040  188.1660 C.2    83  ARG83       0.2287
     70  O          0.6910   14.8210  187.5580 O.2    83  ARG83      -0.2864
     71  CB        -2.1340   15.8670  187.7550 C.3    83  ARG83       0.0334
     72  CG        -2.2450   15.0350  189.0040 C.3    83  ARG83       0.0492
     73  CD        -3.1280   15.6140  190.0610 C.3    83  ARG83       0.2205
     74  NE        -4.4650   15.0330  189.9390 N.pl3  83  ARG83      -0.0865
     75  CZ        -5.5640   15.6210  190.3950 C.cat  83  ARG83       0.5346
     76  NH1       -5.4900   16.8100  191.0260 N.pl3  83  ARG83       0.1354
     77  NH2       -6.7390   15.0100  190.2230 N.pl3  83  ARG83       0.1354
     78  N          2.1190   26.4920  178.5650 N.3   100  LEU100     -0.1245
     79  CA         2.3040   26.6450  177.1570 C.3   100  LEU100      0.1561
     80  C          3.7840   26.4720  176.8300 C.2   100  LEU100      0.2260
     81  O          4.6350   27.1010  177.4130 O.2   100  LEU100     -0.2867
     82  CB         1.8760   28.0170  176.7580 C.3   100  LEU100      0.0270
     83  CG         2.3380   28.4110  175.3580 C.3   100  LEU100      0.0019
     84  CD1        1.7190   27.5210  174.2390 C.3   100  LEU100      0.0001
     85  CD2        1.9820   29.9020  175.1510 C.3   100  LEU100      0.0001
@<TRIPOS>BOND
     1    34    32    1
     2    31    33    1
     3    31    32    1
     4    31    28    1
     5    29    28    1
     6    29    30    2
     7    28    27    1
     8    27    25   am
     9    26    25    2
    10    25    24    1
    11    35    36    1
    12    39    36    1
    13    38    37    2
    14    36    37    1
    15    24    23    1
    16    37    40   am
    17    23    18   am
    18    21    20    1
    19    45    44    1
    20    40    41    1
    21    18    17    1
    22    18    19    2
    23    20    17    1
    24    20    22    1
    25    17    16    1
    26    41    44    1
    27    41    42    1
    28    44    46    1
    29    42    47   am
    30    42    43    2
    31    84    83    1
    32    47    48    1
    33    85    83    1
    34    51    48    1
    35    51    52    1
    36    83    82    1
    37    53    52    1
    38    48    49    1
    39    50    49    2
    40    52    54    1
    41    82    79    1
    42    80    79    1
    43    80    81    2
    44    79    78    1
    45     9    10    2
    46     9     8    1
    47     8    11    1
    48     8     7    1
    49    11    12    1
    50    14    13    2
    51    62    61    1
    52    12    13    1
    53    13    15   am
    54    55    56    1
    55    61    60    1
    56    60    59    1
    57    59    56    1
    58    56    57    1
    59    58    57    2
    60    57    63   am
    61    63    64    1
    62     6     5    1
    63     3     4    2
    64     3     2    1
    65    64    65    1
    66     2     5    1
    67     2     1    1
    68    65    67   am
    69    65    66    2
    70    67    68    1
    71    70    69    2
    72    68    71    1
    73    68    69    1
    74    71    72    1
    75    72    73    1
    76    74    73    1
    77    74    75    2
    78    77    75    1
    79    75    76    1
