@<TRIPOS>MOLECULE
tmp/1uyoA00.pdb
 67 64 0 0 0
SMALL
GASTEIGER

@<TRIPOS>ATOM
      1  N         23.4320   -6.4840  177.5890 N.3    69  ALA69      -0.1231
      2  CA        23.4640   -5.5050  178.6620 C.3    69  ALA69       0.1694
      3  C         22.0470   -5.4480  179.1720 C.2    69  ALA69       0.2592
      4  O         21.1010   -5.4820  178.3680 O.2    69  ALA69      -0.2718
      5  CB        23.8920   -4.2010  178.1220 C.3    69  ALA69       0.0304
      6  N         21.8770   -5.4290  180.4960 N.am   70  ALA70      -0.1966
      7  CA        20.5210   -5.5350  181.0380 C.3    70  ALA70       0.1728
      8  C         20.3570   -4.8260  182.3530 C.2    70  ALA70       0.2616
      9  O         21.0950   -5.0930  183.2880 O.2    70  ALA70      -0.2715
     10  CB        20.1360   -6.9650  181.1860 C.3    70  ALA70       0.0334
     11  N         19.3860   -3.9210  182.4070 N.am   71  ALA71      -0.1977
     12  CA        19.0350   -3.2160  183.6290 C.3    71  ALA71       0.1597
     13  C         17.5700   -3.4670  183.9320 C.2    71  ALA71       0.2287
     14  O         16.6850   -3.0950  183.1420 O.2    71  ALA71      -0.2864
     15  CB        19.2990   -1.7280  183.4840 C.3    71  ALA71       0.0319
     16  N         21.2450   -4.9240  187.4480 N.3    95  ALA95      -0.1231
     17  CA        21.9210   -4.7300  186.1780 C.3    95  ALA95       0.1694
     18  C         22.8750   -5.8810  185.9320 C.2    95  ALA95       0.2593
     19  O         23.4580   -6.4040  186.8490 O.2    95  ALA95      -0.2718
     20  CB        22.6620   -3.4260  186.1740 C.3    95  ALA95       0.0304
     21  N         23.0300   -6.2740  184.6820 N.am   96  GLY96      -0.1942
     22  CA        23.9660   -7.3190  184.3160 C.3    96  GLY96       0.2014
     23  C         24.5750   -7.1520  182.9310 C.2    96  GLY96       0.2638
     24  O         23.9370   -6.6790  181.9600 O.2    96  GLY96      -0.2714
     25  N         25.8330   -7.5510  182.8510 N.am   97  ILE97      -0.1977
     26  CA        26.5730   -7.4600  181.6190 C.3    97  ILE97       0.1596
     27  C         27.1990   -8.7890  181.3160 C.2    97  ILE97       0.2287
     28  O         27.9720   -9.3230  182.1370 O.2    97  ILE97      -0.2864
     29  CB        27.6430   -6.3510  181.6930 C.3    97  ILE97       0.0276
     30  CG1       28.2300   -6.0850  180.3070 C.3    97  ILE97       0.0022
     31  CG2       28.7310   -6.6720  182.7090 C.3    97  ILE97       0.0022
     32  CD1       28.8510   -4.7070  180.2030 C.3    97  ILE97       0.0001
     33  N         29.0810   -9.9160  184.5890 N.3   109  GLY109     -0.1210
     34  CA        29.2680   -8.9660  185.6770 C.3   109  GLY109      0.1956
     35  C         27.8640   -8.5810  186.0950 C.2   109  GLY109      0.2612
     36  O         27.0300   -8.2600  185.2330 O.2   109  GLY109     -0.2717
     37  N         27.5770   -8.6280  187.3920 N.am  110  LEU110     -0.1965
     38  CA        26.2110   -8.4000  187.8510 C.3   110  LEU110      0.1728
     39  C         26.1550   -7.5190  189.0780 C.2   110  LEU110      0.2616
     40  O         26.9580   -7.6900  189.9880 O.2   110  LEU110     -0.2715
     41  CB        25.5250   -9.7300  188.1730 C.3   110  LEU110      0.0311
     42  CG        25.2380  -10.7800  187.1160 C.3   110  LEU110      0.0022
     43  CD1       24.9480  -12.0360  187.8570 C.3   110  LEU110      0.0001
     44  CD2       24.0300  -10.3900  186.3290 C.3   110  LEU110      0.0001
     45  N         25.1710   -6.6250  189.1230 N.am  111  PHE111     -0.1974
     46  CA        25.0510   -5.6400  190.1900 C.3   111  PHE111      0.1639
     47  C         23.6060   -5.4200  190.6550 C.2   111  PHE111      0.2290
     48  O         22.6440   -5.5780  189.8800 O.2   111  PHE111     -0.2864
     49  CB        25.6560   -4.3210  189.7240 C.3   111  PHE111      0.0560
     50  CG        25.5740   -3.1820  190.7460 C.ar  111  PHE111     -0.0200
     51  CD1       26.4500   -3.1460  191.8720 C.ar  111  PHE111     -0.0042
     52  CD2       24.6670   -2.1070  190.5600 C.ar  111  PHE111     -0.0042
     53  CE1       26.4110   -2.0680  192.8010 C.ar  111  PHE111     -0.0003
     54  CE2       24.6280   -1.0300  191.4830 C.ar  111  PHE111     -0.0003
     55  CZ        25.5030   -1.0140  192.5970 C.ar  111  PHE111     -0.0000
     56  N         26.9720   -7.8140  194.2470 N.3   140  LEU140     -0.1231
     57  CA        28.0430   -7.7310  193.2600 C.3   140  LEU140      0.1693
     58  C         28.4050   -9.1410  192.9260 C.2   140  LEU140      0.2592
     59  O         28.5330   -9.9510  193.8510 O.2   140  LEU140     -0.2718
     60  CB        29.2560   -7.0620  193.8980 C.3   140  LEU140      0.0284
     61  CG        30.2690   -6.3000  193.0430 C.3   140  LEU140      0.0019
     62  CD1       29.5150   -5.2370  192.2150 C.3   140  LEU140      0.0001
     63  CD2       31.4050   -5.6570  193.8940 C.3   140  LEU140      0.0001
     64  N         28.5850   -9.4530  191.6430 N.am  141  GLY141     -0.1957
     65  CA        28.7060  -10.8470  191.2480 C.3   141  GLY141      0.1869
     66  C         29.4500  -11.1660  189.9780 C.2   141  GLY141      0.2309
     67  O         29.1650  -10.6060  188.9340 O.2   141  GLY141     -0.2863
@<TRIPOS>BOND
     1     1     2    1
     2     5     2    1
     3     4     3    2
     4     2     3    1
     5     3     6   am
     6    32    30    1
     7    30    29    1
     8     6     7    1
     9     7    10    1
    10     7     8    1
    11    27    26    1
    12    27    28    2
    13    26    29    1
    14    26    25    1
    15    29    31    1
    16    24    23    2
    17     8    11   am
    18     8     9    2
    19    11    12    1
    20    25    23   am
    21    23    22    1
    22    14    13    2
    23    15    12    1
    24    12    13    1
    25    22    21    1
    26    33    34    1
    27    21    18   am
    28    36    35    2
    29    34    35    1
    30    18    17    1
    31    18    19    2
    32    35    37   am
    33    20    17    1
    34    17    16    1
    35    44    42    1
    36    42    43    1
    37    42    41    1
    38    37    38    1
    39    38    41    1
    40    38    39    1
    41    67    66    2
    42    39    45   am
    43    39    40    2
    44    45    46    1
    45    49    46    1
    46    49    50    1
    47    48    47    2
    48    66    65    1
    49    46    47    1
    50    52    50   ar
    51    52    54   ar
    52    50    51   ar
    53    65    64    1
    54    54    55   ar
    55    64    58   am
    56    51    53   ar
    57    62    61    1
    58    55    53   ar
    59    58    57    1
    60    58    59    2
    61    61    63    1
    62    61    60    1
    63    57    60    1
    64    57    56    1
