@<TRIPOS>MOLECULE
tmp/1uyrA00.pdb
 80 74 0 0 0
SMALL
GASTEIGER

@<TRIPOS>ATOM
      1  N         23.2950   46.5670   34.7170 N.3   145  GLY145     -0.1210
      2  CA        24.6460   46.2140   35.1080 C.3   145  GLY145      0.1956
      3  C         25.7170   46.7930   34.2090 C.2   145  GLY145      0.2611
      4  O         25.4580   47.7040   33.4170 O.2   145  GLY145     -0.2717
      5  N         26.9330   46.2680   34.3460 N.am  146  ALA146     -0.1979
      6  CA        28.0680   46.7170   33.5520 C.3   146  ALA146      0.1597
      7  C         27.8480   46.4050   32.0770 C.2   146  ALA146      0.2287
      8  O         27.3890   45.3210   31.7210 O.2   146  ALA146     -0.2864
      9  CB        29.3370   46.0380   34.0410 C.3   146  ALA146      0.0319
     10  N         34.6340   47.4970   34.5310 N.3   224  LEU224     -0.1245
     11  CA        34.8610   47.0200   35.8790 C.3   224  LEU224      0.1561
     12  C         35.5800   48.0900   36.7010 C.2   224  LEU224      0.2260
     13  O         35.2730   48.2900   37.8750 O.2   224  LEU224     -0.2867
     14  CB        35.6530   45.7120   35.8320 C.3   224  LEU224      0.0270
     15  CG        34.9530   44.6420   34.9760 C.3   224  LEU224      0.0019
     16  CD1       35.6540   43.3070   35.1470 C.3   224  LEU224      0.0001
     17  CD2       33.4780   44.5050   35.3780 C.3   224  LEU224      0.0001
     18  N         33.0460   50.5850   37.6210 N.3   227  SER227     -0.1217
     19  CA        32.1620   50.0970   38.6680 C.3   227  SER227      0.1889
     20  C         32.8350   50.2230   40.0300 C.2   227  SER227      0.2288
     21  O         32.2150   50.6620   41.0140 O.2   227  SER227     -0.2866
     22  CB        31.7920   48.6410   38.4120 C.3   227  SER227      0.2089
     23  OG        30.9990   48.5260   37.2390 O.3   227  SER227     -0.2183
     24  N         20.7820   45.5970   38.5270 N.3   252  VAL252     -0.1231
     25  CA        21.7010   44.4630   38.4020 C.3   252  VAL252      0.1692
     26  C         23.1870   44.7470   38.6200 C.2   252  VAL252      0.2593
     27  O         23.6690   45.8470   38.3480 O.2   252  VAL252     -0.2718
     28  CB        21.5860   43.8150   36.9940 C.3   252  VAL252      0.0266
     29  CG1       22.1740   42.4240   37.0230 C.3   252  VAL252      0.0020
     30  CG2       20.1390   43.7910   36.5250 C.3   252  VAL252      0.0020
     31  N         23.9060   43.7270   39.0910 N.am  253  GLY253     -0.1942
     32  CA        25.3410   43.8390   39.3160 C.3   253  GLY253      0.2014
     33  C         25.8040   45.0420   40.1140 C.2   253  GLY253      0.2638
     34  O         25.5000   45.1740   41.3000 O.2   253  GLY253     -0.2714
     35  N         26.5740   45.9140   39.4770 N.am  254  ILE254     -0.1977
     36  CA        27.0450   47.1020   40.1630 C.3   254  ILE254      0.1596
     37  C         25.8030   47.8710   40.6220 C.2   254  ILE254      0.2287
     38  O         25.8290   48.5800   41.6230 O.2   254  ILE254     -0.2864
     39  CB        27.9150   47.9770   39.2240 C.3   254  ILE254      0.0276
     40  CG1       28.2940   49.2870   39.9160 C.3   254  ILE254      0.0022
     41  CG2       27.1620   48.2770   37.9380 C.3   254  ILE254      0.0022
     42  CD1       28.9270   49.1180   41.2910 C.3   254  ILE254      0.0001
     43  N         24.7670   46.4420   43.8850 N.3   257  TYR257     -0.1241
     44  CA        25.8310   46.7790   44.8180 C.3   257  TYR257      0.1605
     45  C         25.6340   48.1890   45.3680 C.2   257  TYR257      0.2264
     46  O         25.6920   48.4190   46.5840 O.2   257  TYR257     -0.2867
     47  CB        27.1740   46.6860   44.0960 C.3   257  TYR257      0.0534
     48  CG        28.3530   46.3480   44.9750 C.ar  257  TYR257     -0.0201
     49  CD1       29.6550   46.4920   44.4980 C.ar  257  TYR257     -0.0009
     50  CD2       28.1750   45.8650   46.2700 C.ar  257  TYR257     -0.0009
     51  CE1       30.7510   46.1640   45.2840 C.ar  257  TYR257      0.0417
     52  CE2       29.2660   45.5320   47.0710 C.ar  257  TYR257      0.0417
     53  CZ        30.5530   45.6850   46.5670 C.ar  257  TYR257      0.1957
     54  OH        31.6470   45.3590   47.3360 O.3   257  TYR257     -0.2866
     55  N         23.0480   48.6710   48.1140 N.3   260  ARG260     -0.1245
     56  CA        23.5220   48.3990   49.4610 C.3   260  ARG260      0.1563
     57  C         24.5550   49.4100   49.9310 C.2   260  ARG260      0.2260
     58  O         24.5220   49.8310   51.0770 O.2   260  ARG260     -0.2867
     59  CB        24.1200   46.9960   49.5500 C.3   260  ARG260      0.0307
     60  CG        24.7840   46.7020   50.8840 C.3   260  ARG260      0.0489
     61  CD        23.7710   46.7310   52.0120 C.3   260  ARG260      0.2205
     62  NE        24.3830   46.6500   53.3300 N.pl3 260  ARG260     -0.0865
     63  CZ        23.6940   46.6350   54.4670 C.cat 260  ARG260      0.5346
     64  NH1       22.3710   46.6950   54.4420 N.pl3 260  ARG260      0.1354
     65  NH2       24.3260   46.5530   55.6300 N.pl3 260  ARG260      0.1354
     66  N         22.3580   40.3090   41.5190 N.3   275  LEU275     -0.1231
     67  CA        23.7680   40.3660   41.1500 C.3   275  LEU275      0.1693
     68  C         23.9250   39.7770   39.7580 C.2   275  LEU275      0.2592
     69  O         24.6560   40.3110   38.9280 O.2   275  LEU275     -0.2718
     70  CB        24.6250   39.5950   42.1570 C.3   275  LEU275      0.0284
     71  CG        24.5990   40.1540   43.5850 C.3   275  LEU275      0.0019
     72  CD1       25.6450   39.4460   44.4280 C.3   275  LEU275      0.0001
     73  CD2       24.8730   41.6530   43.5630 C.3   275  LEU275      0.0001
     74  N         23.2340   38.6700   39.5100 N.am  276  THR276     -0.1953
     75  CA        23.2640   38.0200   38.2040 C.3   276  THR276      0.1897
     76  C         21.8500   37.5190   37.9300 C.2   276  THR276      0.2313
     77  O         21.1370   37.1170   38.8540 O.2   276  THR276     -0.2863
     78  CB        24.2390   36.8110   38.1590 C.3   276  THR276      0.1794
     79  OG1       23.6280   35.6750   38.7800 O.3   276  THR276     -0.2208
     80  CG2       25.5380   37.1370   38.8890 C.3   276  THR276      0.0378
@<TRIPOS>BOND
     1     8     7    2
     2     7     6    1
     3     4     3    2
     4     6     9    1
     5     6     5    1
     6     3     5   am
     7     3     2    1
     8    10    11    1
     9     1     2    1
    10    15    16    1
    11    15    17    1
    12    15    14    1
    13    14    11    1
    14    11    12    1
    15    30    28    1
    16    12    13    2
    17    28    29    1
    18    28    25    1
    19    23    22    1
    20    18    19    1
    21    76    75    1
    22    76    77    2
    23    41    39    1
    24    78    75    1
    25    78    79    1
    26    78    80    1
    27    75    74    1
    28    27    26    2
    29    25    24    1
    30    25    26    1
    31    22    19    1
    32    26    31   am
    33    19    20    1
    34    69    68    2
    35    31    32    1
    36    39    40    1
    37    39    36    1
    38    32    33    1
    39    35    33   am
    40    35    36    1
    41    74    68   am
    42    68    67    1
    43    40    42    1
    44    20    21    2
    45    33    34    2
    46    36    37    1
    47    37    38    2
    48    67    66    1
    49    67    70    1
    50    70    71    1
    51    73    71    1
    52    71    72    1
    53    43    44    1
    54    47    44    1
    55    47    48    1
    56    49    48   ar
    57    49    51   ar
    58    44    45    1
    59    48    50   ar
    60    51    53   ar
    61    45    46    2
    62    50    52   ar
    63    53    52   ar
    64    53    54    1
    65    55    56    1
    66    56    59    1
    67    56    57    1
    68    59    60    1
    69    57    58    2
    70    60    61    1
    71    61    62    1
    72    62    63    2
    73    64    63    1
    74    63    65    1
