@<TRIPOS>MOLECULE
tmp/1uyrA01.pdb
 108 101 0 0 0
SMALL
GASTEIGER

@<TRIPOS>ATOM
      1  N         17.6640   39.2690   72.2910 N.3   443  TRP443     -0.1241
      2  CA        18.5000   39.6750   71.1760 C.3   443  TRP443      0.1605
      3  C         18.9930   38.5190   70.3210 C.2   443  TRP443      0.2264
      4  O         19.7040   37.6430   70.8030 O.2   443  TRP443     -0.2867
      5  CB        19.7000   40.4670   71.6790 C.3   443  TRP443      0.0550
      6  CG        19.6970   41.8570   71.1600 C.ar  443  TRP443      0.0003
      7  CD1       19.4290   42.2520   69.8790 C.ar  443  TRP443      0.0946
      8  CD2       19.9920   43.0460   71.8950 C.ar  443  TRP443      0.0152
      9  NE1       19.5380   43.6180   69.7730 N.ar  443  TRP443     -0.2442
     10  CE2       19.8840   44.1320   70.9940 C.ar  443  TRP443      0.0810
     11  CE3       20.3400   43.3000   73.2240 C.ar  443  TRP443      0.0012
     12  CZ2       20.1120   45.4500   71.3790 C.ar  443  TRP443      0.0191
     13  CZ3       20.5690   44.6150   73.6080 C.ar  443  TRP443      0.0001
     14  CH2       20.4530   45.6740   72.6850 C.ar  443  TRP443      0.0015
     15  N         20.3060   42.2320   66.6310 N.3   448  ALA448     -0.1245
     16  CA        21.5100   42.9610   66.9890 C.3   448  ALA448      0.1562
     17  C         22.0710   43.7000   65.7890 C.2   448  ALA448      0.2260
     18  O         22.4880   44.8500   65.9010 O.2   448  ALA448     -0.2867
     19  CB        22.5440   42.0080   67.5520 C.3   448  ALA448      0.0290
     20  N         19.7190   37.2720   75.1790 N.3   475  PHE475     -0.1241
     21  CA        20.2670   37.0570   73.8330 C.3   475  PHE475      0.1605
     22  C         20.3720   35.5590   73.5520 C.2   475  PHE475      0.2264
     23  O         20.8590   34.8100   74.3980 O.2   475  PHE475     -0.2867
     24  CB        21.6570   37.6860   73.7460 C.3   475  PHE475      0.0534
     25  CG        22.3070   37.8670   75.0810 C.ar  475  PHE475     -0.0203
     26  CD1       22.4670   39.1370   75.6200 C.ar  475  PHE475     -0.0042
     27  CD2       22.6850   36.7630   75.8410 C.ar  475  PHE475     -0.0042
     28  CE1       22.9890   39.3080   76.9020 C.ar  475  PHE475     -0.0003
     29  CE2       23.2100   36.9250   77.1280 C.ar  475  PHE475     -0.0003
     30  CZ        23.3610   38.2020   77.6590 C.ar  475  PHE475     -0.0000
     31  N         27.3910   30.9160   67.1690 N.3   478  ASN478     -0.1240
     32  CA        26.9660   31.9810   68.0810 C.3   478  ASN478      0.1653
     33  C         27.4060   33.3340   67.5010 C.2   478  ASN478      0.2266
     34  O         28.2560   34.0270   68.0710 O.2   478  ASN478     -0.2867
     35  CB        27.5950   31.7590   69.4700 C.3   478  ASN478      0.1155
     36  CG        26.9910   32.6550   70.5560 C.2   478  ASN478      0.2627
     37  OD1       26.8920   33.8770   70.3910 O.2   478  ASN478     -0.2716
     38  ND2       26.6030   32.0480   71.6780 N.am  478  ASN478     -0.0877
     39  N         25.7840   36.0610   67.3720 N.3   480  VAL480     -0.1231
     40  CA        25.3520   37.1730   68.2160 C.3   480  VAL480      0.1692
     41  C         26.5270   37.9770   68.7570 C.2   480  VAL480      0.2591
     42  O         26.4380   39.1970   68.9080 O.2   480  VAL480     -0.2718
     43  CB        24.5110   36.6750   69.4030 C.3   480  VAL480      0.0266
     44  CG1       24.0810   37.8410   70.2740 C.3   480  VAL480      0.0020
     45  CG2       23.2860   35.9530   68.8860 C.3   480  VAL480      0.0020
     46  N         27.6270   37.2920   69.0470 N.am  481  LEU481     -0.1980
     47  CA        28.8180   37.9540   69.5530 C.3   481  LEU481      0.1596
     48  C         29.3430   39.0110   68.5850 C.2   481  LEU481      0.2287
     49  O         29.6910   40.1280   68.9940 O.2   481  LEU481     -0.2864
     50  CB        29.9210   36.9330   69.8170 C.3   481  LEU481      0.0297
     51  CG        30.0340   36.4280   71.2490 C.3   481  LEU481      0.0022
     52  CD1       31.0280   35.2810   71.3040 C.3   481  LEU481      0.0001
     53  CD2       30.4680   37.5760   72.1490 C.3   481  LEU481      0.0001
     54  N         26.6050   41.9210   68.1180 N.3   484  GLY484     -0.1210
     55  CA        26.4370   42.7180   69.3120 C.3   484  GLY484      0.1956
     56  C         27.5870   43.7000   69.3120 C.2   484  GLY484      0.2612
     57  O         27.4240   44.8850   69.6050 O.2   484  GLY484     -0.2717
     58  N         28.7620   43.1960   68.9530 N.am  485  SER485     -0.1952
     59  CA        29.9730   43.9980   68.9000 C.3   485  SER485      0.1924
     60  C         29.8050   45.1910   67.9560 C.2   485  SER485      0.2314
     61  O         30.3640   46.2580   68.1840 O.2   485  SER485     -0.2863
     62  CB        31.1510   43.1200   68.4640 C.3   485  SER485      0.2116
     63  OG        32.3480   43.8770   68.3130 O.3   485  SER485     -0.2180
     64  N         27.2360   46.9080   67.6460 N.3   487  ILE487     -0.1245
     65  CA        26.4850   47.9110   68.3830 C.3   487  ILE487      0.1561
     66  C         27.4260   48.8220   69.1520 C.2   487  ILE487      0.2260
     67  O         27.3360   50.0460   69.0360 O.2   487  ILE487     -0.2867
     68  CB        25.4760   47.2620   69.3660 C.3   487  ILE487      0.0252
     69  CG1       24.4050   46.4840   68.5860 C.3   487  ILE487      0.0019
     70  CG2       24.8310   48.3280   70.2300 C.3   487  ILE487      0.0019
     71  CD1       23.4570   45.6820   69.4650 C.3   487  ILE487      0.0001
     72  N         21.7410   41.8880   82.4750 N.3   510  GLY510     -0.1210
     73  CA        23.1140   41.5990   82.1010 C.3   510  GLY510      0.1956
     74  C         23.6490   42.1260   80.7820 C.2   510  GLY510      0.2612
     75  O         23.8670   43.3310   80.6280 O.2   510  GLY510     -0.2717
     76  N         23.8670   41.2200   79.8310 N.am  511  GLY511     -0.1956
     77  CA        24.4060   41.6100   78.5410 C.3   511  GLY511      0.1869
     78  C         23.6530   42.7190   77.8400 C.2   511  GLY511      0.2309
     79  O         24.2600   43.5550   77.1700 O.2   511  GLY511     -0.2863
     80  N         24.7990   46.0580   79.2310 N.3   514  VAL514     -0.1231
     81  CA        26.1650   46.2700   78.8000 C.3   514  VAL514      0.1692
     82  C         26.3010   47.0200   77.4880 C.2   514  VAL514      0.2591
     83  O         26.9550   48.0630   77.4520 O.2   514  VAL514     -0.2718
     84  CB        26.9120   44.9290   78.6970 C.3   514  VAL514      0.0266
     85  CG1       28.3460   45.1520   78.2340 C.3   514  VAL514      0.0020
     86  CG2       26.8960   44.2530   80.0490 C.3   514  VAL514      0.0020
     87  N         25.6890   46.5010   76.4230 N.am  515  VAL515     -0.1980
     88  CA        25.7760   47.1320   75.1140 C.3   515  VAL515      0.1595
     89  C         25.1530   48.5190   74.9480 C.2   515  VAL515      0.2287
     90  O         25.3040   49.1290   73.8900 O.2   515  VAL515     -0.2864
     91  CB        25.2070   46.2300   74.0140 C.3   515  VAL515      0.0276
     92  CG1       26.1410   45.0720   73.7820 C.3   515  VAL515      0.0022
     93  CG2       23.8310   45.7390   74.3980 C.3   515  VAL515      0.0022
     94  N         21.9640   42.3160   86.8650 N.3   537  VAL537     -0.1231
     95  CA        22.7360   41.3310   86.1240 C.3   537  VAL537      0.1692
     96  C         21.8410   40.1440   85.7490 C.2   537  VAL537      0.2591
     97  O         21.8110   39.7150   84.5930 O.2   537  VAL537     -0.2718
     98  CB        23.9280   40.8180   86.9490 C.3   537  VAL537      0.0266
     99  CG1       24.7540   39.8520   86.1150 C.3   537  VAL537      0.0020
    100  CG2       24.7770   41.9810   87.4160 C.3   537  VAL537      0.0020
    101  N         21.1110   39.6190   86.7320 N.am  538  LEU538     -0.1980
    102  CA        20.2120   38.4850   86.5120 C.3   538  LEU538      0.1596
    103  C         18.7920   38.8360   86.9050 C.2   538  LEU538      0.2287
    104  O         18.5650   39.7770   87.6680 O.2   538  LEU538     -0.2864
    105  CB        20.6610   37.2750   87.3390 C.3   538  LEU538      0.0297
    106  CG        21.6710   36.2890   86.7470 C.3   538  LEU538      0.0022
    107  CD1       22.7730   37.0130   85.9930 C.3   538  LEU538      0.0001
    108  CD2       22.2510   35.4580   87.8800 C.3   538  LEU538      0.0001
@<TRIPOS>BOND
     1    17    18    2
     2    17    16    1
     3    15    16    1
     4    16    19    1
     5    31    32    1
     6    39    40    1
     7    33    34    2
     8    33    32    1
     9    64    65    1
    10    60    61    2
    11    60    59    1
    12    32    35    1
    13    54    55    1
    14    40    41    1
    15    40    43    1
    16    63    62    1
    17    65    66    1
    18    65    68    1
    19    62    59    1
    20    48    49    2
    21    48    47    1
    22    69    68    1
    23    69    71    1
    24    41    42    2
    25    41    46   am
    26    45    43    1
    27    59    58    1
    28    58    56   am
    29    67    66    2
    30    46    47    1
    31    55    56    1
    32    56    57    2
    33    68    70    1
    34    43    44    1
    35    35    36    1
    36    47    50    1
    37     9     7   ar
    38     9    10   ar
    39    50    51    1
    40     7     6   ar
    41     3     4    2
    42     3     2    1
    43    37    36    2
    44    36    38   am
    45    10    12   ar
    46    10     8   ar
    47     6     5    1
    48     6     8   ar
    49     2     5    1
    50     2     1    1
    51    51    52    1
    52    51    53    1
    53    12    14   ar
    54     8    11   ar
    55    14    13   ar
    56    11    13   ar
    57    22    21    1
    58    22    23    2
    59    24    21    1
    60    24    25    1
    61    92    91    1
    62    21    20    1
    63    90    89    2
    64    91    93    1
    65    91    88    1
    66    89    88    1
    67    25    26   ar
    68    25    27   ar
    69    88    87    1
    70    26    28   ar
    71    27    29   ar
    72    87    82   am
    73    28    30   ar
    74    29    30   ar
    75    79    78    2
    76    83    82    2
    77    82    81    1
    78    78    77    1
    79    85    84    1
    80    77    76    1
    81    84    81    1
    82    84    86    1
    83    81    80    1
    84    76    74   am
    85    75    74    2
    86    74    73    1
    87    73    72    1
    88    97    96    2
    89    96    95    1
    90    96   101   am
    91   107   106    1
    92    99    98    1
    93    95    94    1
    94    95    98    1
    95   102   101    1
    96   102   103    1
    97   102   105    1
    98   106   105    1
    99   106   108    1
   100   103   104    2
   101    98   100    1
