@<TRIPOS>MOLECULE
tmp/1uysC00.pdb
 86 80 0 0 0
SMALL
GASTEIGER

@<TRIPOS>ATOM
      1  N         47.2680  -51.5660   28.8600 N.3   424  TRP424     -0.1241
      2  CA        47.3940  -50.7480   30.0530 C.3   424  TRP424      0.1605
      3  C         46.0770  -50.6040   30.8270 C.2   424  TRP424      0.2264
      4  O         45.0040  -50.5950   30.2360 O.2   424  TRP424     -0.2867
      5  CB        47.9360  -49.3740   29.6680 C.3   424  TRP424      0.0550
      6  CG        49.2890  -49.1360   30.2410 C.ar  424  TRP424      0.0003
      7  CD1       49.6830  -49.3340   31.5350 C.ar  424  TRP424      0.0946
      8  CD2       50.4280  -48.6230   29.5440 C.ar  424  TRP424      0.0152
      9  NE1       51.0100  -48.9670   31.6910 N.ar  424  TRP424     -0.2442
     10  CE2       51.4860  -48.5290   30.4840 C.ar  424  TRP424      0.0810
     11  CE3       50.6640  -48.2320   28.2220 C.ar  424  TRP424      0.0012
     12  CZ2       52.7420  -48.0620   30.1410 C.ar  424  TRP424      0.0191
     13  CZ3       51.9190  -47.7680   27.8840 C.ar  424  TRP424      0.0001
     14  CH2       52.9400  -47.6850   28.8370 C.ar  424  TRP424      0.0015
     15  N         49.2050  -48.6060   35.0810 N.3   429  ALA429     -0.1245
     16  CA        49.7260  -47.2830   34.7430 C.3   429  ALA429      0.1562
     17  C         50.2930  -46.6700   36.0110 C.2   429  ALA429      0.2260
     18  O         51.3420  -46.0280   36.0150 O.2   429  ALA429     -0.2867
     19  CB        48.6210  -46.4010   34.2110 C.3   429  ALA429      0.0290
     20  N         44.9410  -49.6740   25.9230 N.3   454  PHE454     -0.1241
     21  CA        44.5380  -49.5020   27.3160 C.3   454  PHE454      0.1605
     22  C         43.0260  -49.6000   27.5130 C.2   454  PHE454      0.2264
     23  O         42.2610  -49.4160   26.5750 O.2   454  PHE454     -0.2867
     24  CB        45.0640  -48.1520   27.8330 C.3   454  PHE454      0.0534
     25  CG        44.8370  -47.0110   26.8820 C.ar  454  PHE454     -0.0203
     26  CD1       43.5650  -46.4680   26.7120 C.ar  454  PHE454     -0.0042
     27  CD2       45.8930  -46.4920   26.1310 C.ar  454  PHE454     -0.0042
     28  CE1       43.3480  -45.4290   25.8120 C.ar  454  PHE454     -0.0003
     29  CE2       45.6830  -45.4500   25.2240 C.ar  454  PHE454     -0.0003
     30  CZ        44.4080  -44.9170   25.0640 C.ar  454  PHE454     -0.0000
     31  N         42.8680  -44.1310   33.8820 N.3   459  VAL459     -0.1231
     32  CA        44.0210  -44.2490   33.0090 C.3   459  VAL459      0.1692
     33  C         44.5240  -42.8770   32.5530 C.2   459  VAL459      0.2591
     34  O         45.7190  -42.6770   32.3440 O.2   459  VAL459     -0.2718
     35  CB        43.6920  -45.0920   31.7630 C.3   459  VAL459      0.0266
     36  CG1       44.9580  -45.3930   31.0070 C.3   459  VAL459      0.0020
     37  CG2       43.0090  -46.3870   32.1730 C.3   459  VAL459      0.0020
     38  N         43.6140  -41.9260   32.3990 N.am  460  LEU460     -0.1980
     39  CA        43.9990  -40.5890   31.9570 C.3   460  LEU460      0.1596
     40  C         44.8390  -39.8340   32.9980 C.2   460  LEU460      0.2287
     41  O         45.8750  -39.2560   32.6750 O.2   460  LEU460     -0.2864
     42  CB        42.7380  -39.8030   31.6200 C.3   460  LEU460      0.0297
     43  CG        42.9120  -38.4410   30.9720 C.3   460  LEU460      0.0022
     44  CD1       43.6410  -38.5910   29.6530 C.3   460  LEU460      0.0001
     45  CD2       41.5520  -37.8240   30.7520 C.3   460  LEU460      0.0001
     46  N         48.0570  -41.5340   33.6640 N.3   463  GLY463     -0.1225
     47  CA        48.9340  -41.4170   32.5190 C.3   463  GLY463      0.1811
     48  C         49.8950  -40.2500   32.6770 C.2   463  GLY463      0.2280
     49  O         51.0570  -40.3550   32.2910 O.2   463  GLY463     -0.2866
     50  N         53.2290  -40.8260   34.6890 N.3   466  ILE466     -0.1245
     51  CA        54.3490  -41.4470   33.9850 C.3   466  ILE466      0.1561
     52  C         55.2520  -40.4330   33.3560 C.2   466  ILE466      0.2260
     53  O         56.4700  -40.4460   33.5520 O.2   466  ILE466     -0.2867
     54  CB        53.8800  -42.4280   32.8850 C.3   466  ILE466      0.0252
     55  CG1       52.9790  -43.5020   33.4770 C.3   466  ILE466      0.0019
     56  CG2       55.0770  -43.1540   32.2790 C.3   466  ILE466      0.0019
     57  CD1       52.4270  -44.3830   32.4460 C.3   466  ILE466      0.0001
     58  N         50.1250  -46.4540   19.3170 N.3   489  GLY489     -0.1210
     59  CA        49.6090  -45.1760   19.7880 C.3   489  GLY489      0.1956
     60  C         49.9820  -44.6830   21.1740 C.2   489  GLY489      0.2612
     61  O         51.1540  -44.6230   21.5200 O.2   489  GLY489     -0.2717
     62  N         48.9760  -44.3150   21.9610 N.am  490  GLY490     -0.1956
     63  CA        49.2150  -43.8260   23.3090 C.3   490  GLY490      0.1869
     64  C         50.2880  -44.5650   24.0830 C.2   490  GLY490      0.2309
     65  O         51.0110  -43.9660   24.8770 O.2   490  GLY490     -0.2863
     66  N         53.5420  -43.0270   22.9790 N.3   493  VAL493     -0.1231
     67  CA        53.6450  -41.6370   23.3990 C.3   493  VAL493      0.1692
     68  C         54.1390  -41.4380   24.8120 C.2   493  VAL493      0.2591
     69  O         54.9530  -40.5550   25.0670 O.2   493  VAL493     -0.2718
     70  CB        52.2860  -40.9010   23.2130 C.3   493  VAL493      0.0266
     71  CG1       52.4040  -39.4340   23.6530 C.3   493  VAL493      0.0020
     72  CG2       51.8620  -40.9680   21.7560 C.3   493  VAL493      0.0020
     73  N         53.6580  -42.2740   25.7230 N.am  494  VAL494     -0.1980
     74  CA        54.0480  -42.1870   27.1230 C.3   494  VAL494      0.1595
     75  C         55.4630  -42.6150   27.4160 C.2   494  VAL494      0.2287
     76  O         55.9060  -42.5110   28.5530 O.2   494  VAL494     -0.2864
     77  CB        53.1350  -43.0150   28.0100 C.3   494  VAL494      0.0276
     78  CG1       51.7710  -42.4070   28.0340 C.3   494  VAL494      0.0022
     79  CG2       53.0850  -44.4260   27.4930 C.3   494  VAL494      0.0022
     80  N         50.9050  -45.9750   14.9200 N.3   514  VAL514     -0.1245
     81  CA        49.7700  -45.3280   15.5670 C.3   514  VAL514      0.1561
     82  C         48.6410  -46.3230   15.7920 C.2   514  VAL514      0.2260
     83  O         48.0730  -46.4050   16.8780 O.2   514  VAL514     -0.2867
     84  CB        49.2310  -44.1580   14.7170 C.3   514  VAL514      0.0252
     85  CG1       48.0240  -43.5640   15.3810 C.3   514  VAL514      0.0019
     86  CG2       50.2980  -43.0940   14.5480 C.3   514  VAL514      0.0019
@<TRIPOS>BOND
     1    86    84    1
     2    84    85    1
     3    84    81    1
     4    80    81    1
     5    81    82    1
     6    82    83    2
     7    58    59    1
     8    59    60    1
     9    60    61    2
    10    60    62   am
    11    72    70    1
    12    62    63    1
    13    66    67    1
    14    70    67    1
    15    70    71    1
    16    63    64    1
    17    67    68    1
    18    64    65    2
    19    68    69    2
    20    68    73   am
    21    30    29   ar
    22    30    28   ar
    23    29    27   ar
    24    73    74    1
    25    28    26   ar
    26    20    21    1
    27    27    25   ar
    28    23    22    2
    29    26    25   ar
    30    25    24    1
    31    74    75    1
    32    74    77    1
    33    21    22    1
    34    21    24    1
    35    75    76    2
    36    79    77    1
    37    13    11   ar
    38    13    14   ar
    39    77    78    1
    40    11     8   ar
    41    14    12   ar
    42     1     2    1
    43     8     6   ar
    44     8    10   ar
    45    44    43    1
    46     5     2    1
    47     5     6    1
    48     2     3    1
    49    12    10   ar
    50     4     3    2
    51     6     7   ar
    52    10     9   ar
    53    45    43    1
    54    43    42    1
    55    36    35    1
    56     7     9   ar
    57    42    39    1
    58    35    37    1
    59    35    32    1
    60    39    38    1
    61    39    40    1
    62    56    54    1
    63    49    48    2
    64    34    33    2
    65    38    33   am
    66    57    55    1
    67    47    48    1
    68    47    46    1
    69    33    32    1
    70    41    40    2
    71    54    55    1
    72    54    51    1
    73    32    31    1
    74    52    53    2
    75    52    51    1
    76    51    50    1
    77    19    16    1
    78    16    15    1
    79    16    17    1
    80    17    18    2
