@<TRIPOS>MOLECULE
tmp/1uyxA00.pdb
 100 97 0 0 0
SMALL
GASTEIGER

@<TRIPOS>ATOM
      1  N         17.1720   -1.6040   31.6890 N.3    12  SER12      -0.1202
      2  CA        15.8300   -1.9930   31.2450 C.3    12  SER12       0.2020
      3  C         15.1630   -3.0200   32.1670 C.2    12  SER12       0.2618
      4  O         13.9310   -3.1640   32.1780 O.2    12  SER12      -0.2717
      5  CB        15.8850   -2.5200   29.8140 C.3    12  SER12       0.2103
      6  OG        16.8690   -3.5230   29.6780 O.3    12  SER12      -0.2182
      7  N         15.9830   -3.7590   32.9090 N.am   13  GLN13      -0.1979
      8  CA        15.5100   -4.6400   33.9750 C.3    13  GLN13       0.1601
      9  C         16.5620   -4.7380   35.0690 C.2    13  GLN13       0.2287
     10  O         17.7430   -4.4740   34.8300 O.2    13  GLN13      -0.2864
     11  CB        15.2070   -6.0310   33.4300 C.3    13  GLN13       0.0394
     12  CG        14.1770   -6.8040   34.2450 C.3    13  GLN13       0.0908
     13  CD        13.5610   -7.9660   33.4830 C.2    13  GLN13       0.2608
     14  OE1       13.5860   -7.9890   32.2550 O.2    13  GLN13      -0.2717
     15  NE2       13.0000   -8.9230   34.2110 N.am   13  GLN13      -0.0878
     16  N         21.4360   -8.1850   39.9350 N.3    39  TRP39      -0.1227
     17  CA        21.8620   -7.9470   38.5630 C.3    39  TRP39       0.1737
     18  C         21.1850   -6.7610   37.9150 C.2    39  TRP39       0.2595
     19  O         20.1690   -6.2510   38.3940 O.2    39  TRP39      -0.2718
     20  CB        21.6910   -9.2140   37.7130 C.3    39  TRP39       0.0564
     21  CG        20.3110   -9.8220   37.6640 C.ar   39  TRP39       0.0003
     22  CD1       19.8670  -10.9040   38.3790 C.ar   39  TRP39       0.0946
     23  CD2       19.2220   -9.4320   36.8140 C.ar   39  TRP39       0.0152
     24  NE1       18.5710  -11.1930   38.0330 N.ar   39  TRP39      -0.2442
     25  CE2       18.1430  -10.3070   37.0820 C.ar   39  TRP39       0.0810
     26  CE3       19.0380   -8.4220   35.8610 C.ar   39  TRP39       0.0012
     27  CZ2       16.9090  -10.2010   36.4330 C.ar   39  TRP39       0.0191
     28  CZ3       17.8120   -8.3270   35.2150 C.ar   39  TRP39       0.0001
     29  CH2       16.7630   -9.2060   35.5110 C.ar   39  TRP39       0.0015
     30  N         21.8070   -6.3070   36.8320 N.am   40  LEU40      -0.1966
     31  CA        21.3680   -5.1620   36.0630 C.3    40  LEU40       0.1728
     32  C         21.4050   -5.5580   34.5880 C.2    40  LEU40       0.2616
     33  O         22.4180   -6.0710   34.1130 O.2    40  LEU40      -0.2715
     34  CB        22.3240   -3.9890   36.3030 C.3    40  LEU40       0.0311
     35  CG        22.5140   -3.5440   37.7560 C.3    40  LEU40       0.0022
     36  CD1       23.7230   -2.6100   37.9040 C.3    40  LEU40       0.0001
     37  CD2       21.2660   -2.8740   38.2690 C.3    40  LEU40       0.0001
     38  N         20.3150   -5.3400   33.8610 N.am   41  SER41      -0.1950
     39  CA        20.2710   -5.6070   32.4320 C.3    41  SER41       0.1924
     40  C         20.1760   -4.3150   31.6420 C.2    41  SER41       0.2314
     41  O         19.3610   -3.4430   31.9670 O.2    41  SER41      -0.2863
     42  CB        19.0710   -6.4730   32.0670 C.3    41  SER41       0.2116
     43  OG        18.9840   -6.6220   30.6560 O.3    41  SER41      -0.2180
     44  N         19.6670   -4.6310   28.2340 N.3    43  ALA43      -0.1245
     45  CA        19.1630   -5.1950   26.9760 C.3    43  ALA43       0.1562
     46  C         18.3330   -4.2030   26.1520 C.2    43  ALA43       0.2260
     47  O         18.2970   -4.2900   24.9250 O.2    43  ALA43      -0.2867
     48  CB        18.3520   -6.4520   27.2490 C.3    43  ALA43       0.0290
     49  N         28.7440   -9.3790   31.2460 N.3    73  GLU73      -0.1231
     50  CA        28.2580  -10.4820   30.4180 C.3    73  GLU73       0.1699
     51  C         27.2080   -9.9700   29.4370 C.2    73  GLU73       0.2592
     52  O         26.9300   -8.7800   29.3820 O.2    73  GLU73      -0.2718
     53  CB        27.6720  -11.5660   31.3300 C.3    73  GLU73       0.0402
     54  CG        26.5370  -11.0530   32.2040 C.3    73  GLU73       0.1161
     55  CD        26.1420  -11.9850   33.3200 C.2    73  GLU73       0.3649
     56  OE1       27.0300  -12.6520   33.8870 O.co2  73  GLU73      -0.2457
     57  OE2       24.9400  -12.0130   33.6560 O.co2  73  GLU73      -0.2457
     58  N         26.6430  -10.8600   28.6320 N.am   74  GLU74      -0.1966
     59  CA        25.4530  -10.5100   27.8790 C.3    74  GLU74       0.1733
     60  C         24.2670  -10.6870   28.7990 C.2    74  GLU74       0.2616
     61  O         24.2800  -11.5640   29.6690 O.2    74  GLU74      -0.2715
     62  CB        25.2720  -11.4010   26.6590 C.3    74  GLU74       0.0429
     63  CG        26.3220  -11.2360   25.5760 C.3    74  GLU74       0.1163
     64  CD        26.3640   -9.8470   24.9430 C.2    74  GLU74       0.3649
     65  OE1       25.4370   -9.4770   24.1690 O.co2  74  GLU74      -0.2457
     66  OE2       27.3280   -9.1200   25.2060 O.co2  74  GLU74      -0.2457
     67  N         23.2490   -9.8550   28.6130 N.am   75  ALA75      -0.1963
     68  CA        21.9950   -9.9600   29.3550 C.3    75  ALA75       0.1728
     69  C         21.4610  -11.3850   29.2450 C.2    75  ALA75       0.2617
     70  O         21.4330  -11.9680   28.1570 O.2    75  ALA75      -0.2715
     71  CB        20.9820   -8.9650   28.8220 C.3    75  ALA75       0.0334
     72  N         21.0850  -11.9560   30.3830 N.am   76  GLY76      -0.1940
     73  CA        20.6730  -13.3510   30.4400 C.3    76  GLY76       0.2014
     74  C         21.7100  -14.2880   31.0300 C.2    76  GLY76       0.2639
     75  O         21.3580  -15.3770   31.4890 O.2    76  GLY76      -0.2714
     76  N         22.9830  -13.8940   31.0080 N.am   77  GLY77      -0.1954
     77  CA        24.0320  -14.6460   31.6800 C.3    77  GLY77       0.1869
     78  C         25.1840  -15.1740   30.8420 C.2    77  GLY77       0.2309
     79  O         26.2290  -15.5200   31.3980 O.2    77  GLY77      -0.2863
     80  N         24.8570   -7.0580   30.3780 N.3   112  GLY112     -0.1210
     81  CA        24.3390   -7.1920   31.7250 C.3   112  GLY112      0.1956
     82  C         25.4670   -7.2630   32.7380 C.2   112  GLY112      0.2612
     83  O         26.6130   -7.5490   32.3810 O.2   112  GLY112     -0.2717
     84  N         25.1410   -6.9740   33.9930 N.am  113  ILE113     -0.1965
     85  CA        26.0840   -7.0680   35.1060 C.3   113  ILE113      0.1727
     86  C         25.4590   -7.9250   36.1980 C.2   113  ILE113      0.2616
     87  O         24.3110   -7.7040   36.5770 O.2   113  ILE113     -0.2715
     88  CB        26.4130   -5.6860   35.6630 C.3   113  ILE113      0.0290
     89  CG1       27.2560   -4.9090   34.6550 C.3   113  ILE113      0.0022
     90  CG2       27.1740   -5.8130   36.9900 C.3   113  ILE113      0.0023
     91  CD1       27.4000   -3.4600   34.9690 C.3   113  ILE113      0.0001
     92  N         26.2140   -8.9040   36.6820 N.am  114  LYS114     -0.1977
     93  CA        25.8140   -9.7400   37.8180 C.3   114  LYS114      0.1596
     94  C         26.7580   -9.4490   38.9770 C.2   114  LYS114      0.2287
     95  O         27.9740   -9.4640   38.8040 O.2   114  LYS114     -0.2864
     96  CB        25.8950  -11.2160   37.4200 C.3   114  LYS114      0.0298
     97  CG        25.7610  -12.2230   38.5500 C.3   114  LYS114      0.0038
     98  CD        24.3370  -12.2770   39.1160 C.3   114  LYS114      0.0206
     99  CE        23.8580  -13.6970   39.4250 C.3   114  LYS114      0.1093
    100  NZ        24.9400  -14.7220   39.5330 N.3   114  LYS114     -0.1314
@<TRIPOS>BOND
     1    65    64   ar
     2    47    46    2
     3    64    66   ar
     4    64    63    1
     5    63    62    1
     6    46    45    1
     7    62    59    1
     8    45    48    1
     9    45    44    1
    10    59    58    1
    11    59    60    1
    12    70    69    2
    13    67    60   am
    14    67    68    1
    15    58    51   am
    16    60    61    2
    17    71    68    1
    18    69    68    1
    19    69    72   am
    20    52    51    2
    21    51    50    1
    22     6     5    1
    23     5     2    1
    24    80    81    1
    25    72    73    1
    26    50    49    1
    27    50    53    1
    28    73    74    1
    29    43    42    1
    30    78    79    2
    31    78    77    1
    32    76    74   am
    33    76    77    1
    34    74    75    2
    35     2     1    1
    36     2     3    1
    37    53    54    1
    38    40    41    2
    39    40    39    1
    40    81    82    1
    41    42    39    1
    42     3     4    2
    43     3     7   am
    44    54    55    1
    45    14    13    2
    46    83    82    2
    47    39    38    1
    48    82    84   am
    49     7     8    1
    50    55    57   ar
    51    55    56   ar
    52    11     8    1
    53    11    12    1
    54    13    15   am
    55    13    12    1
    56    38    32   am
    57     8     9    1
    58    84    85    1
    59    33    32    2
    60    32    31    1
    61    89    91    1
    62    89    88    1
    63    10     9    2
    64    85    88    1
    65    85    86    1
    66    28    29   ar
    67    28    26   ar
    68    29    27   ar
    69    88    90    1
    70    26    23   ar
    71    31    34    1
    72    31    30    1
    73    86    87    2
    74    86    92   am
    75    34    35    1
    76    27    25   ar
    77    92    93    1
    78    23    25   ar
    79    23    21   ar
    80    30    18   am
    81    25    24   ar
    82    96    93    1
    83    96    97    1
    84    21    20    1
    85    21    22   ar
    86    20    17    1
    87    35    36    1
    88    35    37    1
    89    93    94    1
    90    18    19    2
    91    18    17    1
    92    24    22   ar
    93    97    98    1
    94    17    16    1
    95    95    94    2
    96    98    99    1
    97    99   100    1
