@<TRIPOS>MOLECULE
tmp/1uyxB01.pdb
 90 90 0 0 0
SMALL
GASTEIGER

@<TRIPOS>ATOM
      1  N         11.1150    3.4120   22.4910 N.3    20  GLU20      -0.1245
      2  CA         9.9940    3.5160   23.4250 C.3    20  GLU20       0.1567
      3  C          8.7710    4.1550   22.7870 C.2    20  GLU20       0.2260
      4  O          8.8560    4.7860   21.7410 O.2    20  GLU20      -0.2867
      5  CB        10.4060    4.2920   24.6720 C.3    20  GLU20       0.0388
      6  CG        10.7400    5.7490   24.4080 C.3    20  GLU20       0.1160
      7  CD        11.6420    6.3780   25.4660 C.2    20  GLU20       0.3649
      8  OE1       12.1970    5.6520   26.3150 O.co2  20  GLU20      -0.2457
      9  OE2       11.7990    7.6130   25.4520 O.co2  20  GLU20      -0.2457
     10  N         15.1410    7.0250   22.7620 N.3    32  GLY32      -0.1210
     11  CA        15.4940    7.6110   24.0420 C.3    32  GLY32       0.1956
     12  C         16.7490    7.0080   24.6520 C.2    32  GLY32       0.2612
     13  O         17.4800    6.2760   23.9830 O.2    32  GLY32      -0.2717
     14  N         16.9760    7.3110   25.9340 N.am   33  TYR33      -0.1962
     15  CA        18.1970    6.9200   26.6370 C.3    33  TYR33       0.1771
     16  C         19.4560    7.2470   25.8230 C.2    33  TYR33       0.2619
     17  O         20.3460    6.4160   25.6440 O.2    33  TYR33      -0.2715
     18  CB        18.1460    5.4480   27.0550 C.3    33  TYR33       0.0574
     19  CG        17.1700    5.2020   28.1830 C.ar   33  TYR33      -0.0198
     20  CD1       15.8120    5.0320   27.9340 C.ar   33  TYR33      -0.0009
     21  CD2       17.6000    5.1830   29.4980 C.ar   33  TYR33      -0.0009
     22  CE1       14.9070    4.8160   28.9710 C.ar   33  TYR33       0.0417
     23  CE2       16.7100    4.9680   30.5450 C.ar   33  TYR33       0.0417
     24  CZ        15.3650    4.7890   30.2760 C.ar   33  TYR33       0.1957
     25  OH        14.4800    4.5780   31.3140 O.3    33  TYR33      -0.2866
     26  N         19.5110    8.4910   25.3550 N.am   34  ILE34      -0.1977
     27  CA        20.6190    8.9860   24.5490 C.3    34  ILE34       0.1596
     28  C         21.6860    9.6040   25.4410 C.2    34  ILE34       0.2287
     29  O         21.3980   10.4950   26.2480 O.2    34  ILE34      -0.2864
     30  CB        20.1060   10.0290   23.5230 C.3    34  ILE34       0.0276
     31  CG1       19.0130    9.4110   22.6350 C.3    34  ILE34       0.0022
     32  CG2       21.2680   10.5860   22.6890 C.3    34  ILE34       0.0022
     33  CD1       18.4570   10.3340   21.5620 C.3    34  ILE34       0.0001
     34  N         15.5590   18.3490   30.7660 N.3    65  ASN65      -0.1240
     35  CA        16.5040   19.2810   31.3960 C.3    65  ASN65       0.1653
     36  C         17.3940   20.0870   30.4430 C.2    65  ASN65       0.2266
     37  O         18.1620   20.9490   30.8860 O.2    65  ASN65      -0.2867
     38  CB        17.3990   18.5060   32.3680 C.3    65  ASN65       0.1155
     39  CG        16.6110   17.8420   33.4750 C.2    65  ASN65       0.2627
     40  OD1       15.8280   18.4970   34.1660 O.2    65  ASN65      -0.2716
     41  ND2       16.8080   16.5370   33.6510 N.am   65  ASN65      -0.0877
     42  N          9.9840   14.6990   29.0190 N.3    92  TRP92      -0.1227
     43  CA        10.4410   13.6350   28.1230 C.3    92  TRP92       0.1737
     44  C          9.4510   13.3320   26.9980 C.2    92  TRP92       0.2595
     45  O          9.8150   12.7200   26.0010 O.2    92  TRP92      -0.2718
     46  CB        10.6960   12.3550   28.9150 C.3    92  TRP92       0.0564
     47  CG        11.8810   12.4010   29.8250 C.ar   92  TRP92       0.0003
     48  CD1       11.8810   12.2270   31.1830 C.ar   92  TRP92       0.0946
     49  CD2       13.2470   12.6000   29.4510 C.ar   92  TRP92       0.0152
     50  NE1       13.1610   12.3160   31.6730 N.ar   92  TRP92      -0.2442
     51  CE2       14.0220   12.5410   30.6310 C.ar   92  TRP92       0.0810
     52  CE3       13.9040   12.8150   28.2320 C.ar   92  TRP92       0.0012
     53  CZ2       15.4100   12.6970   30.6280 C.ar   92  TRP92       0.0191
     54  CZ3       15.2880   12.9650   28.2320 C.ar   92  TRP92       0.0001
     55  CH2       16.0230   12.9040   29.4210 C.ar   92  TRP92       0.0015
     56  N          8.1890   13.7230   27.1640 N.am   93  GLN93      -0.1979
     57  CA         7.1870   13.5530   26.1110 C.3    93  GLN93       0.1601
     58  C          6.4610   14.8730   25.8320 C.2    93  GLN93       0.2287
     59  O          5.2860   14.8880   25.4510 O.2    93  GLN93      -0.2864
     60  CB         6.2050   12.4330   26.4630 C.3    93  GLN93       0.0394
     61  CG         6.8370   11.0460   26.5320 C.3    93  GLN93       0.0908
     62  CD         7.2700   10.4760   25.1700 C.2    93  GLN93       0.2608
     63  OE1        8.2050    9.6670   25.1030 O.2    93  GLN93      -0.2717
     64  NE2        6.5870   10.8690   24.1080 N.am   93  GLN93      -0.0878
     65  N         20.5520   13.4560   27.0060 N.3   119  GLY119     -0.1210
     66  CA        19.4720   14.0680   27.7580 C.3   119  GLY119      0.1956
     67  C         18.2810   14.5050   26.9320 C.2   119  GLY119      0.2612
     68  O         17.5470   15.3980   27.3480 O.2   119  GLY119     -0.2717
     69  N         18.0850   13.8670   25.7810 N.am  120  TRP120     -0.1962
     70  CA        16.9790   14.1900   24.8780 C.3   120  TRP120      0.1771
     71  C         16.4300   12.9280   24.2040 C.2   120  TRP120      0.2619
     72  O         17.0610   11.8700   24.1980 O.2   120  TRP120     -0.2715
     73  CB        17.4030   15.2250   23.8160 C.3   120  TRP120      0.0590
     74  CG        18.6770   14.8820   23.1130 C.ar  120  TRP120      0.0006
     75  CD1       19.9310   14.9890   23.6130 C.ar  120  TRP120      0.0946
     76  CD2       18.8200   14.3470   21.7920 C.ar  120  TRP120      0.0152
     77  NE1       20.8520   14.5510   22.6960 N.ar  120  TRP120     -0.2442
     78  CE2       20.1950   14.1640   21.5590 C.ar  120  TRP120      0.0810
     79  CE3       17.9230   14.0300   20.7660 C.ar  120  TRP120      0.0012
     80  CZ2       20.6920   13.6650   20.3590 C.ar  120  TRP120      0.0191
     81  CZ3       18.4190   13.5290   19.5780 C.ar  120  TRP120      0.0001
     82  CH2       19.7910   13.3560   19.3810 C.ar  120  TRP120      0.0015
     83  N         15.2230   13.0720   23.6650 N.am  121  ASN121     -0.1972
     84  CA        14.5270   12.0470   22.8890 C.3   121  ASN121      0.1688
     85  C         14.2780   12.5650   21.4700 C.2   121  ASN121      0.2292
     86  O         14.1940   13.7750   21.2580 O.2   121  ASN121     -0.2864
     87  CB        13.1760   11.7380   23.5300 C.3   121  ASN121      0.1181
     88  CG        13.2890   11.0640   24.8800 C.2   121  ASN121      0.2629
     89  OD1       14.2930   10.4270   25.2050 O.2   121  ASN121     -0.2716
     90  ND2       12.2220   11.1700   25.6680 N.am  121  ASN121     -0.0877
@<TRIPOS>BOND
     1    82    81   ar
     2    82    80   ar
     3    81    79   ar
     4    80    78   ar
     5    79    76   ar
     6    86    85    2
     7    85    84    1
     8    78    76   ar
     9    78    77   ar
    10    33    31    1
    11     4     3    2
    12    76    74   ar
    13     1     2    1
    14    31    30    1
    15    32    30    1
    16    77    75   ar
    17    10    11    1
    18     3     2    1
    19    84    87    1
    20    84    83    1
    21    74    75   ar
    22    74    73    1
    23     2     5    1
    24    30    27    1
    25    87    88    1
    26    83    71   am
    27    73    70    1
    28    13    12    2
    29    11    12    1
    30    64    62   am
    31    72    71    2
    32    71    70    1
    33     6     5    1
    34     6     7    1
    35    27    26    1
    36    27    28    1
    37    12    14   am
    38    70    69    1
    39    88    89    2
    40    88    90   am
    41    63    62    2
    42    62    61    1
    43    26    16   am
    44    28    29    2
    45    59    58    2
    46     9     7   ar
    47     7     8   ar
    48    17    16    2
    49    69    67   am
    50    16    15    1
    51    58    57    1
    52    14    15    1
    53    45    44    2
    54    57    60    1
    55    57    56    1
    56    60    61    1
    57    15    18    1
    58    67    68    2
    59    67    66    1
    60    44    56   am
    61    44    43    1
    62    65    66    1
    63    18    19    1
    64    20    19   ar
    65    20    22   ar
    66    43    46    1
    67    43    42    1
    68    19    21   ar
    69    54    52   ar
    70    54    55   ar
    71    52    49   ar
    72    46    47    1
    73    22    24   ar
    74    55    53   ar
    75    49    47   ar
    76    49    51   ar
    77    21    23   ar
    78    47    48   ar
    79    24    23   ar
    80    24    25    1
    81    36    37    2
    82    36    35    1
    83    53    51   ar
    84    51    50   ar
    85    34    35    1
    86    48    50   ar
    87    35    38    1
    88    38    39    1
    89    39    41   am
    90    39    40    2
