@<TRIPOS>MOLECULE
tmp/1uyyA00.pdb
 103 99 0 0 0
SMALL
GASTEIGER

@<TRIPOS>ATOM
      1  N         16.0120   -3.8300   33.0480 N.3    13  GLN13      -0.1245
      2  CA        15.5490   -4.7540   34.0880 C.3    13  GLN13       0.1566
      3  C         16.6020   -4.8020   35.1940 C.2    13  GLN13       0.2260
      4  O         17.7670   -4.4780   34.9640 O.2    13  GLN13      -0.2867
      5  CB        15.3320   -6.1610   33.5190 C.3    13  GLN13       0.0367
      6  CG        14.2310   -6.2780   32.4680 C.3    13  GLN13       0.0905
      7  CD        14.6740   -5.8980   31.0580 C.2    13  GLN13       0.2608
      8  OE1       15.8480   -6.0240   30.6990 O.2    13  GLN13      -0.2717
      9  NE2       13.7240   -5.4470   30.2500 N.am   13  GLN13      -0.0878
     10  N         21.4770   -8.2460   40.0530 N.3    39  TRP39      -0.1227
     11  CA        21.9270   -7.9870   38.6860 C.3    39  TRP39       0.1737
     12  C         21.2420   -6.7900   38.0550 C.2    39  TRP39       0.2595
     13  O         20.2150   -6.3160   38.5360 O.2    39  TRP39      -0.2718
     14  CB        21.7710   -9.2360   37.8010 C.3    39  TRP39       0.0564
     15  CG        20.3930   -9.8520   37.7530 C.ar   39  TRP39       0.0003
     16  CD1       19.9580  -10.9420   38.4510 C.ar   39  TRP39       0.0946
     17  CD2       19.2970   -9.4500   36.9180 C.ar   39  TRP39       0.0152
     18  NE1       18.6590  -11.2300   38.1080 N.ar   39  TRP39      -0.2442
     19  CE2       18.2250  -10.3280   37.1760 C.ar   39  TRP39       0.0810
     20  CE3       19.1050   -8.4250   35.9790 C.ar   39  TRP39       0.0012
     21  CZ2       16.9880  -10.2150   36.5370 C.ar   39  TRP39       0.0191
     22  CZ3       17.8710   -8.3160   35.3470 C.ar   39  TRP39       0.0001
     23  CH2       16.8320   -9.2070   35.6340 C.ar   39  TRP39       0.0015
     24  N         21.8640   -6.2940   36.9850 N.am   40  LEU40      -0.1966
     25  CA        21.4020   -5.1540   36.2080 C.3    40  LEU40       0.1728
     26  C         21.4520   -5.5390   34.7310 C.2    40  LEU40       0.2616
     27  O         22.4630   -6.0730   34.2710 O.2    40  LEU40      -0.2715
     28  CB        22.3330   -3.9580   36.4670 C.3    40  LEU40       0.0311
     29  CG        22.4970   -3.5520   37.9350 C.3    40  LEU40       0.0022
     30  CD1       23.6900   -2.6210   38.1350 C.3    40  LEU40       0.0001
     31  CD2       21.2370   -2.8950   38.4400 C.3    40  LEU40       0.0001
     32  N         20.3750   -5.2850   33.9970 N.am   41  SER41      -0.1950
     33  CA        20.3370   -5.5470   32.5640 C.3    41  SER41       0.1924
     34  C         20.2070   -4.2620   31.7870 C.2    41  SER41       0.2314
     35  O         19.4000   -3.4010   32.1410 O.2    41  SER41      -0.2863
     36  CB        19.1520   -6.4250   32.1930 C.3    41  SER41       0.2116
     37  OG        19.1180   -6.6200   30.7800 O.3    41  SER41      -0.2180
     38  N         19.6620   -4.5930   28.3640 N.3    43  ALA43      -0.1245
     39  CA        19.1340   -5.1420   27.1130 C.3    43  ALA43       0.1562
     40  C         18.3080   -4.1360   26.3050 C.2    43  ALA43       0.2260
     41  O         18.2710   -4.2190   25.0850 O.2    43  ALA43      -0.2867
     42  CB        18.2980   -6.3890   27.3900 C.3    43  ALA43       0.0290
     43  N         28.7620   -9.3160   31.2910 N.3    73  GLU73      -0.1231
     44  CA        28.2700  -10.4080   30.4530 C.3    73  GLU73       0.1699
     45  C         27.2220   -9.8810   29.4950 C.2    73  GLU73       0.2592
     46  O         26.9190   -8.7070   29.4660 O.2    73  GLU73      -0.2718
     47  CB        27.6860  -11.5200   31.3460 C.3    73  GLU73       0.0402
     48  CG        26.5440  -11.0390   32.2340 C.3    73  GLU73       0.1161
     49  CD        26.1700  -11.9870   33.3530 C.2    73  GLU73       0.3649
     50  OE1       27.0700  -12.6550   33.9120 O.co2  73  GLU73      -0.2457
     51  OE2       24.9710  -12.0280   33.7050 O.co2  73  GLU73      -0.2457
     52  N         26.6770  -10.7730   28.6950 N.am   74  GLU74      -0.1966
     53  CA        25.5090  -10.4770   27.9120 C.3    74  GLU74       0.1733
     54  C         24.3050  -10.6610   28.8340 C.2    74  GLU74       0.2616
     55  O         24.3100  -11.5730   29.6890 O.2    74  GLU74      -0.2715
     56  CB        25.4660  -11.4730   26.7710 C.3    74  GLU74       0.0429
     57  CG        25.2580  -10.9740   25.3730 C.3    74  GLU74       0.1163
     58  CD        25.9790   -9.6990   24.9110 C.2    74  GLU74       0.3649
     59  OE1       27.1040   -9.2350   25.3110 O.co2  74  GLU74      -0.2457
     60  OE2       25.3530   -9.1610   24.0300 O.co2  74  GLU74      -0.2457
     61  N         23.2950   -9.8020   28.6890 N.am   75  ALA75      -0.1963
     62  CA        22.0370   -9.9260   29.4250 C.3    75  ALA75       0.1728
     63  C         21.5000  -11.3480   29.2810 C.2    75  ALA75       0.2617
     64  O         21.4540  -11.9020   28.1790 O.2    75  ALA75      -0.2715
     65  CB        21.0060   -8.9140   28.9230 C.3    75  ALA75       0.0334
     66  N         21.1300  -11.9430   30.4080 N.am   76  GLY76      -0.1940
     67  CA        20.6910  -13.3280   30.4310 C.3    76  GLY76       0.2014
     68  C         21.7040  -14.2740   31.0490 C.2    76  GLY76       0.2639
     69  O         21.3400  -15.3700   31.4870 O.2    76  GLY76      -0.2714
     70  N         22.9770  -13.8780   31.0690 N.am   77  GLY77      -0.1954
     71  CA        24.0300  -14.6510   31.7080 C.3    77  GLY77       0.1869
     72  C         25.1750  -15.1470   30.8420 C.2    77  GLY77       0.2309
     73  O         26.2280  -15.4980   31.3770 O.2    77  GLY77      -0.2863
     74  N         23.8060   -6.7790   23.9990 N.3   110  GLN110     -0.1245
     75  CA        22.9310   -6.4200   25.0980 C.3   110  GLN110      0.1566
     76  C         23.6520   -6.8250   26.3630 C.2   110  GLN110      0.2260
     77  O         23.7560   -8.0090   26.6510 O.2   110  GLN110     -0.2867
     78  CB        21.5940   -7.1480   24.9590 C.3   110  GLN110      0.0367
     79  CG        20.7580   -6.6090   23.8070 C.3   110  GLN110      0.0905
     80  CD        19.5450   -7.4570   23.5140 C.2   110  GLN110      0.2608
     81  OE1       19.6720   -8.5780   23.0130 O.2   110  GLN110     -0.2717
     82  NE2       18.3630   -6.9260   23.8120 N.am  110  GLN110     -0.0878
     83  N         24.8620   -6.9890   30.4920 N.3   112  GLY112     -0.1210
     84  CA        24.3590   -7.1680   31.8460 C.3   112  GLY112      0.1956
     85  C         25.4990   -7.2440   32.8450 C.2   112  GLY112      0.2612
     86  O         26.6370   -7.5340   32.4730 O.2   112  GLY112     -0.2717
     87  N         25.1870   -6.9640   34.1050 N.am  113  ILE113     -0.1965
     88  CA        26.1220   -7.0670   35.2190 C.3   113  ILE113      0.1727
     89  C         25.5060   -7.9370   36.3100 C.2   113  ILE113      0.2616
     90  O         24.3710   -7.7090   36.7180 O.2   113  ILE113     -0.2715
     91  CB        26.4370   -5.6810   35.7850 C.3   113  ILE113      0.0290
     92  CG1       27.2510   -4.8860   34.7610 C.3   113  ILE113      0.0022
     93  CG2       27.1920   -5.7950   37.1250 C.3   113  ILE113      0.0023
     94  CD1       27.4720   -3.4490   35.1070 C.3   113  ILE113      0.0001
     95  N         26.2580   -8.9320   36.7690 N.am  114  LYS114     -0.1977
     96  CA        25.8590   -9.7850   37.8890 C.3   114  LYS114      0.1596
     97  C         26.7990   -9.5140   39.0580 C.2   114  LYS114      0.2287
     98  O         28.0090   -9.5540   38.9030 O.2   114  LYS114     -0.2864
     99  CB        25.9350  -11.2570   37.4720 C.3   114  LYS114      0.0298
    100  CG        25.7860  -12.2790   38.6000 C.3   114  LYS114      0.0038
    101  CD        24.3430  -12.3660   39.1180 C.3   114  LYS114      0.0206
    102  CE        23.8800  -13.7910   39.4410 C.3   114  LYS114      0.1093
    103  NZ        24.9540  -14.8220   39.4760 N.3   114  LYS114     -0.1314
@<TRIPOS>BOND
     1    81    80    2
     2    80    79    1
     3    80    82   am
     4    79    78    1
     5    74    75    1
     6    60    58   ar
     7    58    59   ar
     8    58    57    1
     9    78    75    1
    10    41    40    2
    11    75    76    1
    12    57    56    1
    13    40    39    1
    14    76    77    2
    15    56    53    1
    16    39    42    1
    17    39    38    1
    18    53    52    1
    19    53    54    1
    20    64    63    2
    21    61    54   am
    22    61    62    1
    23    52    45   am
    24    54    55    2
    25    65    62    1
    26    63    62    1
    27    63    66   am
    28    46    45    2
    29    45    44    1
    30     9     7   am
    31    66    67    1
    32    67    68    1
    33    44    43    1
    34    44    47    1
    35    83    84    1
    36     8     7    2
    37    37    36    1
    38    72    73    2
    39    72    71    1
    40    68    70   am
    41    68    69    2
    42     7     6    1
    43    70    71    1
    44    47    48    1
    45    34    35    2
    46    34    33    1
    47    84    85    1
    48    36    33    1
    49    48    49    1
    50     6     5    1
    51    86    85    2
    52    33    32    1
    53    85    87   am
    54     1     2    1
    55    49    51   ar
    56    49    50   ar
    57     5     2    1
    58    32    26   am
    59     2     3    1
    60    87    88    1
    61    27    26    2
    62    26    25    1
    63    92    94    1
    64    92    91    1
    65     4     3    2
    66    88    91    1
    67    88    89    1
    68    22    23   ar
    69    22    20   ar
    70    23    21   ar
    71    91    93    1
    72    20    17   ar
    73    25    28    1
    74    25    24    1
    75    89    90    2
    76    89    95   am
    77    28    29    1
    78    21    19   ar
    79    95    96    1
    80    17    19   ar
    81    17    15   ar
    82    24    12   am
    83    19    18   ar
    84    99    96    1
    85    99   100    1
    86    15    14    1
    87    15    16   ar
    88    14    11    1
    89    96    97    1
    90    29    30    1
    91    29    31    1
    92    12    13    2
    93    12    11    1
    94    18    16   ar
    95   100   101    1
    96    11    10    1
    97    98    97    2
    98   101   102    1
    99   102   103    1
