@<TRIPOS>MOLECULE
tmp/1uz0A00.pdb
 89 84 0 0 0
SMALL
GASTEIGER

@<TRIPOS>ATOM
      1  N         -0.9570   11.5640   21.0630 N.3    13  GLN13      -0.1245
      2  CA        -0.6650   12.8080   21.7990 C.3    13  GLN13       0.1566
      3  C         -0.3180   13.8570   20.7730 C.2    13  GLN13       0.2260
      4  O          0.1330   13.5560   19.6720 O.2    13  GLN13      -0.2867
      5  CB         0.4940   12.6630   22.8180 C.3    13  GLN13       0.0367
      6  CG         0.1690   11.6950   23.9880 C.3    13  GLN13       0.0905
      7  CD         0.5010   10.1800   23.7010 C.2    13  GLN13       0.2608
      8  OE1        1.2570    9.8360   22.7740 O.2    13  GLN13      -0.2717
      9  NE2       -0.0760    9.2840   24.5360 N.am   13  GLN13      -0.0878
     10  N          7.1790   24.5680   16.3000 N.3    37  GLY37      -0.1225
     11  CA         7.1900   23.8970   17.6060 C.3    37  GLY37       0.1811
     12  C          6.0370   22.9790   17.9370 C.2    37  GLY37       0.2280
     13  O          6.1130   22.1890   18.8690 O.2    37  GLY37      -0.2866
     14  N          3.5950   19.6780   17.4620 N.3    39  TRP39      -0.1227
     15  CA         4.0140   18.2930   17.2270 C.3    39  TRP39       0.1737
     16  C          2.8770   17.3260   17.3770 C.2    39  TRP39       0.2595
     17  O          1.8350   17.5940   17.9690 O.2    39  TRP39      -0.2718
     18  CB         5.2170   17.9070   18.1100 C.3    39  TRP39       0.0564
     19  CG         5.0180   18.0540   19.6330 C.ar   39  TRP39       0.0003
     20  CD1        5.4630   19.0640   20.4370 C.ar   39  TRP39       0.0946
     21  CD2        4.3270   17.1370   20.5010 C.ar   39  TRP39       0.0152
     22  NE1        5.1100   18.8260   21.7520 N.ar   39  TRP39      -0.2442
     23  CE2        4.4240   17.6450   21.8230 C.ar   39  TRP39       0.0810
     24  CE3        3.6660   15.9340   20.3020 C.ar   39  TRP39       0.0012
     25  CZ2        3.8280   17.0200   22.9210 C.ar   39  TRP39       0.0191
     26  CZ3        3.0910   15.2980   21.4050 C.ar   39  TRP39       0.0001
     27  CH2        3.1810   15.8580   22.6960 C.ar   39  TRP39       0.0015
     28  N          3.0600   16.1860   16.7440 N.am   40  LEU40      -0.1966
     29  CA         2.1210   15.0960   16.7470 C.3    40  LEU40       0.1728
     30  C          2.8930   13.8260   17.0930 C.2    40  LEU40       0.2616
     31  O          3.9760   13.5920   16.5610 O.2    40  LEU40      -0.2715
     32  CB         1.5940   14.9380   15.3290 C.3    40  LEU40       0.0311
     33  CG         0.8600   16.1410   14.7930 C.3    40  LEU40       0.0022
     34  CD1        0.8520   16.0840   13.2440 C.3    40  LEU40       0.0001
     35  CD2       -0.5480   16.1630   15.3530 C.3    40  LEU40       0.0001
     36  N          2.2950   12.9720   17.9110 N.am   41  SER41      -0.1950
     37  CA         2.8280   11.6980   18.2300 C.3    41  SER41       0.1924
     38  C          1.9290   10.5530   17.8280 C.2    41  SER41       0.2314
     39  O          0.7200   10.5890   18.0590 O.2    41  SER41      -0.2863
     40  CB         3.0640   11.5830   19.7300 C.3    41  SER41       0.2116
     41  OG         3.5850   10.3210   20.0370 O.3    41  SER41      -0.2180
     42  N          2.8220    7.3780   18.9860 N.3    43  ALA43      -0.1245
     43  CA         3.4010    6.3500   19.8860 C.3    43  ALA43       0.1562
     44  C          2.3950    5.2480   20.2490 C.2    43  ALA43       0.2260
     45  O          2.7810    4.0930   20.4360 O.2    43  ALA43      -0.2867
     46  CB         3.9510    7.0100   21.1300 C.3    43  ALA43       0.0290
     47  N         10.4290   11.9390   12.8720 N.3    73  GLU73      -0.1245
     48  CA        11.2510   11.4780   13.9430 C.3    73  GLU73       0.1567
     49  C         10.6280   10.2960   14.7310 C.2    73  GLU73       0.2260
     50  O          9.5280    9.8970   14.4890 O.2    73  GLU73      -0.2867
     51  CB        11.5590   12.6590   14.8770 C.3    73  GLU73       0.0388
     52  CG        10.2770   13.2280   15.5010 C.3    73  GLU73       0.1160
     53  CD        10.4470   14.5440   16.2530 C.2    73  GLU73       0.3649
     54  OE1       11.2680   15.3770   15.8410 O.co2  73  GLU73      -0.2457
     55  OE2        9.7550   14.7340   17.2910 O.co2  73  GLU73      -0.2457
     56  N          9.0060    9.2080   18.1750 N.3    75  ALA75      -0.1231
     57  CA         8.1920    9.8620   19.1470 C.3    75  ALA75       0.1694
     58  C          9.0550   10.1830   20.3460 C.2    75  ALA75       0.2593
     59  O          9.7650    9.3150   20.8680 O.2    75  ALA75      -0.2718
     60  CB         7.0610    8.9790   19.5470 C.3    75  ALA75       0.0304
     61  N          9.0470   11.4390   20.7290 N.am   76  GLY76      -0.1942
     62  CA         9.8590   11.8910   21.8310 C.3    76  GLY76       0.2014
     63  C         10.9340   12.8140   21.3560 C.2    76  GLY76       0.2639
     64  O         11.5330   13.5250   22.1690 O.2    76  GLY76      -0.2714
     65  N         11.2330   12.7550   20.0550 N.am   77  GLY77      -0.1954
     66  CA        12.2010   13.6460   19.4590 C.3    77  GLY77       0.1869
     67  C         13.5800   13.1510   19.0860 C.2    77  GLY77       0.2309
     68  O         14.3650   13.9250   18.5000 O.2    77  GLY77      -0.2863
     69  N          6.7940   10.2870   15.3210 N.3   112  GLY112     -0.1210
     70  CA         6.3320   11.6020   15.6400 C.3   112  GLY112      0.1956
     71  C          6.6820   12.5280   14.4840 C.2   112  GLY112      0.2612
     72  O          7.5300   12.2150   13.6450 O.2   112  GLY112     -0.2717
     73  N          6.0090   13.6570   14.4650 N.am  113  ILE113     -0.1965
     74  CA         6.2140   14.7280   13.5020 C.3   113  ILE113      0.1727
     75  C          6.3380   16.0500   14.2750 C.2   113  ILE113      0.2616
     76  O          5.5340   16.3500   15.1550 O.2   113  ILE113     -0.2715
     77  CB         5.0620   14.7620   12.5260 C.3   113  ILE113      0.0290
     78  CG1        5.1270   13.5330   11.6100 C.3   113  ILE113      0.0022
     79  CG2        5.1100   16.0290   11.6910 C.3   113  ILE113      0.0023
     80  CD1        3.9170   13.3270   10.8230 C.3   113  ILE113      0.0001
     81  N          7.3660   16.8200   13.9580 N.am  114  LYS114     -0.1977
     82  CA         7.5720   18.1240   14.5750 C.3   114  LYS114      0.1600
     83  C          7.5130   19.1780   13.4560 C.2   114  LYS114      0.2287
     84  O          8.1580   19.0110   12.4180 O.2   114  LYS114     -0.2864
     85  CB         8.9380   18.1000   15.2720 C.3   114  LYS114      0.0344
     86  CG         9.4950   19.5050   15.6720 C.3   114  LYS114      0.0297
     87  CD         8.7010   20.0740   16.8350 C.2   114  LYS114     -0.0067
     88  CE         9.1180   19.6160   18.2420 C.2   114  LYS114      0.1012
     89  NZ        10.2720   18.9380   18.5110 N.pl3 114  LYS114     -0.1270
@<TRIPOS>BOND
     1    80    78    1
     2    78    77    1
     3    79    77    1
     4    84    83    2
     5    77    74    1
     6    47    48    1
     7    34    33    1
     8    83    82    1
     9    74    75    1
    10    74    73    1
    11    72    71    2
    12    48    49    1
    13    48    51    1
    14    81    75   am
    15    81    82    1
    16    75    76    2
    17    73    71   am
    18    71    70    1
    19    50    49    2
    20    82    85    1
    21    33    32    1
    22    33    35    1
    23    51    52    1
    24    85    86    1
    25    69    70    1
    26    32    29    1
    27    52    53    1
    28    86    87    1
    29    54    53   ar
    30    53    55   ar
    31    10    11    1
    32    31    30    2
    33    28    29    1
    34    28    16   am
    35    29    30    1
    36    87    88    2
    37    30    36   am
    38    15    16    1
    39    15    14    1
    40    15    18    1
    41    16    17    2
    42    11    12    1
    43    38    39    2
    44    38    37    1
    45    36    37    1
    46    12    13    2
    47    18    19    1
    48    56    57    1
    49    37    40    1
    50    88    89    1
    51    68    67    2
    52    42    43    1
    53    67    66    1
    54    57    60    1
    55    57    58    1
    56    66    65    1
    57    19    20   ar
    58    19    21   ar
    59     4     3    2
    60    40    41    1
    61    43    44    1
    62    43    46    1
    63    65    63   am
    64    44    45    2
    65    24    21   ar
    66    24    26   ar
    67    58    61   am
    68    58    59    2
    69    20    22   ar
    70    21    23   ar
    71    61    62    1
    72     3     2    1
    73     1     2    1
    74    63    62    1
    75    63    64    2
    76    26    27   ar
    77    22    23   ar
    78     2     5    1
    79    23    25   ar
    80    27    25   ar
    81     8     7    2
    82     5     6    1
    83     7     6    1
    84     7     9   am
