@<TRIPOS>MOLECULE
tmp/1uz4A00.pdb
 127 127 0 0 0
SMALL
GASTEIGER

@<TRIPOS>ATOM
      1  N         67.5280    7.8760   30.7130 N.3   114  TRP114     -0.1241
      2  CA        67.8130    7.6660   32.1400 C.3   114  TRP114      0.1605
      3  C         66.5950    8.0000   33.0090 C.2   114  TRP114      0.2264
      4  O         65.5650    8.4050   32.4990 O.2   114  TRP114     -0.2867
      5  CB        69.0640    8.4470   32.5690 C.3   114  TRP114      0.0550
      6  CG        70.2630    8.1080   31.6940 C.ar  114  TRP114      0.0003
      7  CD1       70.8870    8.9440   30.8160 C.ar  114  TRP114      0.0946
      8  CD2       70.8970    6.8310   31.5440 C.ar  114  TRP114      0.0152
      9  NE1       71.8910    8.2780   30.1520 N.ar  114  TRP114     -0.2442
     10  CE2       71.9080    6.9730   30.5700 C.ar  114  TRP114      0.0810
     11  CE3       70.7270    5.5730   32.1420 C.ar  114  TRP114      0.0012
     12  CZ2       72.7380    5.9380   30.2060 C.ar  114  TRP114      0.0191
     13  CZ3       71.5590    4.5440   31.7790 C.ar  114  TRP114      0.0001
     14  CH2       72.5520    4.7240   30.8160 C.ar  114  TRP114      0.0015
     15  N         66.0440   10.2100   35.6390 N.3   116  TRP116     -0.1241
     16  CA        65.9350   11.4110   36.4790 C.3   116  TRP116      0.1605
     17  C         64.8320   12.3530   36.0660 C.2   116  TRP116      0.2264
     18  O         64.5060   13.2900   36.7920 O.2   116  TRP116     -0.2867
     19  CB        67.2750   12.1430   36.5880 C.3   116  TRP116      0.0550
     20  CG        68.0180   12.5040   35.3170 C.ar  116  TRP116      0.0003
     21  CD1       68.9970   11.7950   34.6990 C.ar  116  TRP116      0.0946
     22  CD2       67.8590   13.7080   34.5540 C.ar  116  TRP116      0.0152
     23  NE1       69.4530   12.4730   33.5920 N.ar  116  TRP116     -0.2442
     24  CE2       68.7870   13.6610   33.4930 C.ar  116  TRP116      0.0810
     25  CE3       67.0210   14.8230   34.6590 C.ar  116  TRP116      0.0012
     26  CZ2       68.8980   14.6860   32.5490 C.ar  116  TRP116      0.0191
     27  CZ3       67.1460   15.8420   33.7210 C.ar  116  TRP116      0.0001
     28  CH2       68.0800   15.7540   32.6810 C.ar  116  TRP116      0.0015
     29  N         67.4760   12.6780   25.7080 N.3   193  ASN193     -0.1225
     30  CA        68.7780   12.6770   26.3570 C.3   193  ASN193      0.1785
     31  C         69.4080   11.2820   26.3380 C.2   193  ASN193      0.2597
     32  O         68.8820   10.3570   26.9660 O.2   193  ASN193     -0.2718
     33  CB        68.6660   13.1390   27.7900 C.3   193  ASN193      0.1169
     34  CG        70.0270   13.2690   28.4500 C.2   193  ASN193      0.2627
     35  OD1       70.9480   13.8610   27.8840 O.2   193  ASN193     -0.2716
     36  ND2       70.1850   12.6050   29.5820 N.am  193  ASN193     -0.0877
     37  N         70.4810   11.1300   25.5710 N.am  194  GLU194     -0.1979
     38  CA        71.3150    9.9260   25.5470 C.3   194  GLU194      0.1602
     39  C         70.5720    8.6490   25.1700 C.2   194  GLU194      0.2287
     40  O         70.7540    7.6260   25.8000 O.2   194  GLU194     -0.2864
     41  CB        72.0750    9.7840   26.8780 C.3   194  GLU194      0.0415
     42  CG        72.9830   10.9640   27.1370 C.3   194  GLU194      0.1163
     43  CD        74.0590   10.7280   28.1870 C.2   194  GLU194      0.3649
     44  OE1       73.8780    9.8050   29.0340 O.co2 194  GLU194     -0.2457
     45  OE2       75.0810   11.4750   28.1740 O.co2 194  GLU194     -0.2457
     46  N         82.3510   11.4970   28.9860 N.3   264  TRP264     -0.1241
     47  CA        82.2430   11.2350   30.4230 C.3   264  TRP264      0.1605
     48  C         83.3670   10.3330   30.9380 C.2   264  TRP264      0.2264
     49  O         83.1720    9.1490   31.2190 O.2   264  TRP264     -0.2867
     50  CB        80.8530   10.6810   30.7600 C.3   264  TRP264      0.0550
     51  CG        79.8330   11.7830   30.5870 C.ar  264  TRP264      0.0003
     52  CD1       78.8640   11.8900   29.6520 C.ar  264  TRP264      0.0946
     53  CD2       79.7730   12.9330   31.3860 C.ar  264  TRP264      0.0152
     54  NE1       78.1760   13.0680   29.8330 N.ar  264  TRP264     -0.2442
     55  CE2       78.7490   13.7460   30.8810 C.ar  264  TRP264      0.0810
     56  CE3       80.5050   13.3750   32.4970 C.ar  264  TRP264      0.0012
     57  CZ2       78.4030   14.9590   31.4680 C.ar  264  TRP264      0.0191
     58  CZ3       80.1810   14.6160   33.0780 C.ar  264  TRP264      0.0001
     59  CH2       79.1220   15.3750   32.5630 C.ar  264  TRP264      0.0015
     60  N         82.7500    8.5790   34.3570 N.3   267  ASN267     -0.1240
     61  CA        81.6520    7.5960   34.2770 C.3   267  ASN267      0.1653
     62  C         82.1030    6.3210   33.5540 C.2   267  ASN267      0.2266
     63  O         81.6380    5.2110   33.8640 O.2   267  ASN267     -0.2867
     64  CB        80.4560    8.1460   33.4990 C.3   267  ASN267      0.1155
     65  CG        79.8510    9.4080   34.1300 C.2   267  ASN267      0.2627
     66  OD1       80.5690   10.2450   34.6810 O.2   267  ASN267     -0.2716
     67  ND2       78.5540    9.5710   33.9580 N.am  267  ASN267     -0.0877
     68  N         77.6040   17.5520   25.8030 N.3   309  GLU309     -0.1245
     69  CA        77.8430   17.3290   27.2310 C.3   309  GLU309      0.1567
     70  C         79.2840   16.8930   27.4430 C.2   309  GLU309      0.2260
     71  O         79.7810   15.9980   26.7530 O.2   309  GLU309     -0.2867
     72  CB        77.0010   16.2040   27.8510 C.3   309  GLU309      0.0388
     73  CG        75.5130   16.2520   27.7760 C.3   309  GLU309      0.1160
     74  CD        74.8830   15.1240   28.5870 C.2   309  GLU309      0.3649
     75  OE1       73.6410   14.9720   28.5590 O.co2 309  GLU309     -0.2457
     76  OE2       75.6170   14.4090   29.2830 O.co2 309  GLU309     -0.2457
     77  N         78.6390   20.3520   30.8380 N.3   355  TRP355     -0.1241
     78  CA        77.7290   19.7640   31.8150 C.3   355  TRP355      0.1605
     79  C         78.3960   19.9270   33.1820 C.2   355  TRP355      0.2264
     80  O         79.4190   19.2740   33.4350 O.2   355  TRP355     -0.2867
     81  CB        77.4660   18.2630   31.5510 C.3   355  TRP355      0.0550
     82  CG        76.4690   17.7270   32.4950 C.ar  355  TRP355      0.0003
     83  CD1       76.6530   17.4010   33.8220 C.ar  355  TRP355      0.0946
     84  CD2       75.0850   17.4680   32.2120 C.ar  355  TRP355      0.0152
     85  NE1       75.4660   16.9690   34.3640 N.ar  355  TRP355     -0.2442
     86  CE2       74.4880   17.0080   33.3990 C.ar  355  TRP355      0.0810
     87  CE3       74.2820   17.5600   31.0610 C.ar  355  TRP355      0.0012
     88  CZ2       73.1490   16.6450   33.4590 C.ar  355  TRP355      0.0191
     89  CZ3       72.9390   17.2160   31.1430 C.ar  355  TRP355      0.0001
     90  CH2       72.3910   16.7630   32.3280 C.ar  355  TRP355      0.0015
     91  N         71.3510   16.7970   38.0690 N.3   380  PRO380     -0.2116
     92  CA        69.9290   16.4710   38.2640 C.3   380  PRO380      0.1372
     93  C         69.6970   15.5890   39.5030 C.2   380  PRO380      0.2244
     94  O         70.6670   15.2660   40.1940 O.2   380  PRO380     -0.2868
     95  CB        69.5150   15.7750   36.9670 C.3   380  PRO380      0.0268
     96  CG        70.7230   15.9150   36.0610 C.3   380  PRO380      0.0207
     97  CD        71.9400   15.9880   37.0010 C.3   380  PRO380      0.0892
     98  N         69.3290   12.6180   40.3150 N.3   382  GLN382     -0.1231
     99  CA        69.8990   11.2880   40.4440 C.3   382  GLN382      0.1698
    100  C         71.3910   11.3100   40.8120 C.2   382  GLN382      0.2592
    101  O         72.0150   10.2650   40.9600 O.2   382  GLN382     -0.2718
    102  CB        69.6600   10.4730   39.1400 C.3   382  GLN382      0.0381
    103  CG        70.7330   10.4680   38.0710 C.3   382  GLN382      0.0905
    104  CD        71.0440   11.7960   37.4400 C.2   382  GLN382      0.2608
    105  OE1       70.4540   12.8050   37.7980 O.2   382  GLN382     -0.2717
    106  NE2       71.9550   11.7940   36.4450 N.am  382  GLN382     -0.0878
    107  N         71.9780   12.5000   40.9350 N.am  383  GLU383     -0.1979
    108  CA        73.3690   12.6750   41.2980 C.3   383  GLU383      0.1602
    109  C         73.5050   13.6740   42.4330 C.2   383  GLU383      0.2287
    110  O         72.7040   14.6050   42.5800 O.2   383  GLU383     -0.2864
    111  CB        74.2110   13.0890   40.0730 C.3   383  GLU383      0.0415
    112  CG        74.4940   11.8970   39.1730 C.3   383  GLU383      0.1163
    113  CD        75.0390   12.2090   37.7920 C.2   383  GLU383      0.3649
    114  OE1       75.0090   13.3830   37.3210 O.co2 383  GLU383     -0.2457
    115  OE2       75.4820   11.2140   37.1590 O.co2 383  GLU383     -0.2457
    116  N         79.1090   17.6010   39.2600 N.3   388  TYR388     -0.1241
    117  CA        79.6640   18.1200   38.0240 C.3   388  TYR388      0.1605
    118  C         79.3630   19.5980   37.7780 C.2   388  TYR388      0.2264
    119  O         79.9640   20.2040   36.9030 O.2   388  TYR388     -0.2867
    120  CB        79.1280   17.3250   36.8520 C.3   388  TYR388      0.0534
    121  CG        79.7170   15.9320   36.7180 C.ar  388  TYR388     -0.0201
    122  CD1       81.0940   15.7510   36.6800 C.ar  388  TYR388     -0.0009
    123  CD2       78.9190   14.8400   36.5300 C.ar  388  TYR388     -0.0009
    124  CE1       81.6570   14.4860   36.4950 C.ar  388  TYR388      0.0417
    125  CE2       79.4680   13.5700   36.3450 C.ar  388  TYR388      0.0417
    126  CZ        80.8340   13.4090   36.3210 C.ar  388  TYR388      0.1957
    127  OH        81.3960   12.1750   36.0640 O.3   388  TYR388     -0.2866
@<TRIPOS>BOND
     1    39    38    1
     2    39    40    2
     3    38    37    1
     4    38    41    1
     5    37    31   am
     6    29    30    1
     7    68    69    1
     8    31    30    1
     9    31    32    2
    10    30    33    1
    11    71    70    2
    12    41    42    1
    13    42    43    1
    14    69    70    1
    15    69    72    1
    16    73    72    1
    17    73    74    1
    18    33    34    1
    19    35    34    2
    20    45    43   ar
    21    43    44   ar
    22    34    36   am
    23    75    74   ar
    24    74    76   ar
    25    46    47    1
    26    52    54   ar
    27    52    51   ar
    28    54    55   ar
    29     9    10   ar
    30     9     7   ar
    31    12    10   ar
    32    12    14   ar
    33    47    50    1
    34    47    48    1
    35    10     8   ar
    36    51    50    1
    37    51    53   ar
    38     1     2    1
    39    14    13   ar
    40     7     6   ar
    41    77    78    1
    42    55    53   ar
    43    55    57   ar
    44    48    49    2
    45    87    89   ar
    46    87    84   ar
    47    89    90   ar
    48    53    56   ar
    49    57    59   ar
    50     8     6   ar
    51     8    11   ar
    52    81    78    1
    53    81    82    1
    54     6     5    1
    55    13    11   ar
    56    78    79    1
    57     2     5    1
    58     2     3    1
    59    84    82   ar
    60    84    86   ar
    61    90    88   ar
    62    82    83   ar
    63    56    58   ar
    64     4     3    2
    65    26    28   ar
    66    26    24   ar
    67    59    58   ar
    68    28    27   ar
    69    79    80    2
    70    86    88   ar
    71    86    85   ar
    72    24    23   ar
    73    24    22   ar
    74    64    65    1
    75    64    61    1
    76    62    63    2
    77    62    61    1
    78    23    21   ar
    79    27    25   ar
    80    83    85   ar
    81    67    65   am
    82    65    66    2
    83    61    60    1
    84    22    25   ar
    85    22    20   ar
    86    21    20   ar
    87    20    19    1
    88    15    16    1
    89    96    95    1
    90    96    97    1
    91   127   126    1
    92    17    16    1
    93    17    18    2
    94   126   125   ar
    95   126   124   ar
    96   125   123   ar
    97   106   104   am
    98    16    19    1
    99   124   122   ar
   100   123   121   ar
   101   122   121   ar
   102   121   120    1
   103   120   117    1
   104   119   118    2
   105    95    92    1
   106    97    91    1
   107   115   113   ar
   108   114   113   ar
   109   104   105    2
   110   104   103    1
   111   118   117    1
   112   113   112    1
   113   117   116    1
   114    91    92    1
   115   103   102    1
   116    92    93    1
   117   102    99    1
   118   112   111    1
   119    93    94    2
   120   111   108    1
   121    98    99    1
   122    99   100    1
   123   100   107   am
   124   100   101    2
   125   107   108    1
   126   108   109    1
   127   109   110    2
