@<TRIPOS>MOLECULE
tmp/1uz8A00.pdb
 103 103 0 0 0
SMALL
GASTEIGER

@<TRIPOS>ATOM
      1  N         -1.0420   14.3300   29.0480 N.3    31  TYR31      -0.1241
      2  CA        -0.3980   15.6030   29.3140 C.3    31  TYR31       0.1605
      3  C         -1.0100   16.2150   30.5730 C.2    31  TYR31       0.2264
      4  O         -2.0810   15.7990   31.0140 O.2    31  TYR31      -0.2867
      5  CB        -0.6010   16.5170   28.1000 C.3    31  TYR31       0.0534
      6  CG         0.3380   17.6990   28.0220 C.ar   31  TYR31      -0.0201
      7  CD1        1.6700   17.5840   28.3910 C.ar   31  TYR31      -0.0009
      8  CD2       -0.1060   18.9270   27.5620 C.ar   31  TYR31      -0.0009
      9  CE1        2.5270   18.6640   28.3240 C.ar   31  TYR31       0.0417
     10  CE2        0.7470   20.0100   27.4770 C.ar   31  TYR31       0.0417
     11  CZ         2.0640   19.8750   27.8600 C.ar   31  TYR31       0.1957
     12  OH         2.9140   20.9590   27.7830 O.3    31  TYR31      -0.2866
     13  N         -2.5260   12.3710   24.1160 N.3    37  TYR37      -0.1241
     14  CA        -2.1350   12.6940   22.7510 C.3    37  TYR37       0.1605
     15  C         -1.9200   11.4450   21.8970 C.2    37  TYR37       0.2264
     16  O         -0.8350   11.1890   21.3690 O.2    37  TYR37      -0.2867
     17  CB        -0.9610   13.6730   22.7610 C.3    37  TYR37       0.0534
     18  CG        -1.4420   15.0500   23.1550 C.ar   37  TYR37      -0.0201
     19  CD1       -1.9030   15.9430   22.1950 C.ar   37  TYR37      -0.0009
     20  CD2       -1.5140   15.4280   24.4900 C.ar   37  TYR37      -0.0009
     21  CE1       -2.3730   17.1910   22.5470 C.ar   37  TYR37       0.0417
     22  CE2       -1.9830   16.6820   24.8570 C.ar   37  TYR37       0.0417
     23  CZ        -2.4140   17.5540   23.8800 C.ar   37  TYR37       0.1957
     24  OH        -2.8830   18.7920   24.2150 O.3    37  TYR37      -0.2866
     25  N         -3.5360    9.0520   18.6410 N.3    39  TYR39      -0.1241
     26  CA        -4.3120    9.0720   17.4040 C.3    39  TYR39       0.1605
     27  C         -4.4160    7.6600   16.8340 C.2    39  TYR39       0.2264
     28  O         -3.5940    6.8010   17.1420 O.2    39  TYR39      -0.2867
     29  CB        -3.6560    9.9940   16.3710 C.3    39  TYR39       0.0534
     30  CG        -3.3760   11.3600   16.9430 C.ar   39  TYR39      -0.0201
     31  CD1       -2.3060   11.5560   17.8040 C.ar   39  TYR39      -0.0009
     32  CD2       -4.1970   12.4440   16.6540 C.ar   39  TYR39      -0.0009
     33  CE1       -2.0590   12.7890   18.3660 C.ar   39  TYR39       0.0417
     34  CE2       -3.9520   13.6870   17.2060 C.ar   39  TYR39       0.0417
     35  CZ        -2.8820   13.8500   18.0620 C.ar   39  TYR39       0.1957
     36  OH        -2.6260   15.0800   18.6200 O.3    39  TYR39      -0.2866
     37  N         -8.6740   11.3480   16.8000 N.3    54  TYR54      -0.1227
     38  CA        -7.6320   12.2660   17.2550 C.3    54  TYR54       0.1736
     39  C         -7.7450   12.6370   18.7400 C.2    54  TYR54       0.2595
     40  O         -8.8110   12.9660   19.2490 O.2    54  TYR54      -0.2718
     41  CB        -7.5120   13.5040   16.3480 C.3    54  TYR54       0.0548
     42  CG        -8.7350   14.3880   16.1830 C.ar   54  TYR54      -0.0200
     43  CD1       -9.7880   14.0170   15.3560 C.ar   54  TYR54      -0.0009
     44  CD2       -8.8050   15.6250   16.8050 C.ar   54  TYR54      -0.0009
     45  CE1      -10.8970   14.8380   15.1910 C.ar   54  TYR54       0.0417
     46  CE2       -9.9060   16.4520   16.6480 C.ar   54  TYR54       0.0417
     47  CZ       -10.9460   16.0540   15.8350 C.ar   54  TYR54       0.1957
     48  OH       -12.0460   16.8690   15.6730 O.3    54  TYR54      -0.2866
     49  N         -6.6130   12.5380   19.4280 N.am   55  GLN55      -0.1979
     50  CA        -6.5160   12.8160   20.8580 C.3    55  GLN55       0.1601
     51  C         -7.5320   12.0280   21.6870 C.2    55  GLN55       0.2287
     52  O         -8.1820   12.5630   22.5890 O.2    55  GLN55      -0.2864
     53  CB        -6.5980   14.3240   21.1060 C.3    55  GLN55       0.0394
     54  CG        -5.2730   15.0100   20.8400 C.3    55  GLN55       0.0908
     55  CD        -5.4050   16.4820   20.5310 C.2    55  GLN55       0.2608
     56  OE1       -6.3820   17.1210   20.9200 O.2    55  GLN55      -0.2717
     57  NE2       -4.4140   17.0280   19.8350 N.am   55  GLN55      -0.0878
     58  N          1.6650   12.5210   19.4210 N.3    96  ASN96      -0.1225
     59  CA         2.4080   13.7620   19.2540 C.3    96  ASN96       0.1785
     60  C          2.4550   14.5640   20.5420 C.2    96  ASN96       0.2597
     61  O          2.4590   15.7970   20.5270 O.2    96  ASN96      -0.2718
     62  CB         1.8810   14.6000   18.0840 C.3    96  ASN96       0.1169
     63  CG         0.5810   15.3080   18.3870 C.2    96  ASN96       0.2627
     64  OD1       -0.1340   14.9610   19.3240 O.2    96  ASN96      -0.2716
     65  ND2        0.2620   16.3170   17.5790 N.am   96  ASN96      -0.0877
     66  N          2.5070   13.8420   21.6570 N.am   97  LEU97      -0.1966
     67  CA         2.8140   14.4430   22.9470 C.3    97  LEU97       0.1728
     68  C          4.1710   15.1350   22.8510 C.2    97  LEU97       0.2616
     69  O          4.3580   16.2510   23.3410 O.2    97  LEU97      -0.2715
     70  CB         2.8530   13.3700   24.0400 C.3    97  LEU97       0.0311
     71  CG         3.2850   13.8660   25.4230 C.3    97  LEU97       0.0022
     72  CD1        2.1510   14.6030   26.1250 C.3    97  LEU97       0.0001
     73  CD2        3.7880   12.7200   26.2870 C.3    97  LEU97       0.0001
     74  N          5.1230   14.4500   22.2240 N.am   98  GLU98      -0.1963
     75  CA         6.4620   14.9880   22.0290 C.3    98  GLU98       0.1733
     76  C          6.8020   15.0380   20.5430 C.2    98  GLU98       0.2616
     77  O          6.2040   14.3160   19.7420 O.2    98  GLU98      -0.2715
     78  CB         7.4870   14.1120   22.7500 C.3    98  GLU98       0.0429
     79  CG         7.6230   14.4060   24.2290 C.3    98  GLU98       0.1163
     80  CD         8.3140   13.2880   24.9800 C.2    98  GLU98       0.3649
     81  OE1        9.1290   12.5690   24.3650 O.co2  98  GLU98      -0.2457
     82  OE2        8.0340   13.1270   26.1870 O.co2  98  GLU98      -0.2457
     83  N          7.7550   15.8940   20.1820 N.am   99  VAL99      -0.1977
     84  CA         8.3570   15.8700   18.8520 C.3    99  VAL99       0.1596
     85  C          9.5240   14.8900   18.8860 C.2    99  VAL99       0.2287
     86  O         10.3430   14.9460   19.8030 O.2    99  VAL99      -0.2864
     87  CB         8.9030   17.2540   18.4470 C.3    99  VAL99       0.0276
     88  CG1        9.8160   17.1400   17.2270 C.3    99  VAL99       0.0022
     89  CG2        7.7660   18.2250   18.1770 C.3    99  VAL99       0.0022
     90  N          6.4440   13.3320   16.1570 N.3   101  TRP101     -0.1241
     91  CA         5.3730   12.3610   15.9440 C.3   101  TRP101      0.1605
     92  C          5.9820   10.9800   15.7870 C.2   101  TRP101      0.2264
     93  O          6.9140   10.8120   15.0120 O.2   101  TRP101     -0.2867
     94  CB         4.6390   12.6560   14.6360 C.3   101  TRP101      0.0550
     95  CG         3.4940   13.6110   14.7010 C.ar  101  TRP101      0.0003
     96  CD1        3.5610   14.9700   14.6510 C.ar  101  TRP101      0.0946
     97  CD2        2.1000   13.2820   14.7570 C.ar  101  TRP101      0.0152
     98  NE1        2.2980   15.5090   14.7000 N.ar  101  TRP101     -0.2442
     99  CE2        1.3820   14.4940   14.7580 C.ar  101  TRP101      0.0810
    100  CE3        1.3830   12.0830   14.8200 C.ar  101  TRP101      0.0012
    101  CZ2       -0.0060   14.5430   14.8230 C.ar  101  TRP101      0.0191
    102  CZ3        0.0030   12.1310   14.8720 C.ar  101  TRP101      0.0001
    103  CH2       -0.6790   13.3570   14.8760 C.ar  101  TRP101      0.0015
@<TRIPOS>BOND
     1    94    95    1
     2    94    91    1
     3    96    98   ar
     4    96    95   ar
     5    98    99   ar
     6    95    97   ar
     7    97    99   ar
     8    97   100   ar
     9    99   101   ar
    10   100   102   ar
    11   101   103   ar
    12   102   103   ar
    13    93    92    2
    14    45    43   ar
    15    45    47   ar
    16    43    42   ar
    17    48    47    1
    18    92    91    1
    19    47    46   ar
    20    91    90    1
    21    42    41    1
    22    42    44   ar
    23    41    38    1
    24    29    30    1
    25    29    26    1
    26    46    44   ar
    27    32    30   ar
    28    32    34   ar
    29    37    38    1
    30    27    28    2
    31    27    26    1
    32    30    31   ar
    33    34    35   ar
    34    88    87    1
    35    38    39    1
    36    26    25    1
    37    65    63   am
    38    31    33   ar
    39    35    33   ar
    40    35    36    1
    41    62    63    1
    42    62    59    1
    43    89    87    1
    44    63    64    2
    45    87    84    1
    46    39    40    2
    47    39    49   am
    48    84    85    1
    49    84    83    1
    50    85    86    2
    51    59    58    1
    52    59    60    1
    53    49    50    1
    54    77    76    2
    55    57    55   am
    56    83    76   am
    57    61    60    2
    58    55    54    1
    59    55    56    2
    60    60    66   am
    61    76    75    1
    62    54    53    1
    63    50    53    1
    64    50    51    1
    65    16    15    2
    66    66    67    1
    67    51    52    2
    68    15    14    1
    69    75    74    1
    70    75    78    1
    71    19    21   ar
    72    19    18   ar
    73    74    68   am
    74    21    23   ar
    75    78    79    1
    76    14    17    1
    77    14    13    1
    78    17    18    1
    79    68    67    1
    80    68    69    2
    81    67    70    1
    82    18    20   ar
    83    23    24    1
    84    23    22   ar
    85    70    71    1
    86    79    80    1
    87    81    80   ar
    88    20    22   ar
    89    80    82   ar
    90    71    72    1
    91    71    73    1
    92    10     8   ar
    93    10    11   ar
    94     8     6   ar
    95    12    11    1
    96    11     9   ar
    97     6     5    1
    98     6     7   ar
    99     5     2    1
   100     9     7   ar
   101     1     2    1
   102     2     3    1
   103     3     4    2
