@<TRIPOS>MOLECULE
tmp/1uzeA00.pdb
 218 213 0 0 0
SMALL
GASTEIGER

@<TRIPOS>ATOM
      1  N         37.3760   34.8320   63.8510 N.3    27  ASN27      -0.1240
      2  CA        37.1620   34.5470   62.4380 C.3    27  ASN27       0.1653
      3  C         38.1630   33.4960   61.9620 C.2    27  ASN27       0.2266
      4  O         37.8140   32.5810   61.2160 O.2    27  ASN27      -0.2867
      5  CB        37.3000   35.8400   61.6260 C.3    27  ASN27       0.1155
      6  CG        36.6840   35.7300   60.2460 C.2    27  ASN27       0.2627
      7  OD1       35.8310   34.8770   60.0010 O.2    27  ASN27      -0.2716
      8  ND2       37.0980   36.6100   59.3400 N.am   27  ASN27      -0.0877
      9  N         37.4760   29.7720   60.4470 N.3    31  ASN31      -0.1240
     10  CA        38.0440   29.4600   59.1380 C.3    31  ASN31       0.1653
     11  C         38.9960   28.2680   59.1370 C.2    31  ASN31       0.2266
     12  O         39.0680   27.5380   58.1500 O.2    31  ASN31      -0.2867
     13  CB        38.7800   30.6850   58.5840 C.3    31  ASN31       0.1155
     14  CG        37.8860   31.5710   57.7300 C.2    31  ASN31       0.2627
     15  OD1       37.8100   31.4050   56.5110 O.2    31  ASN31      -0.2716
     16  ND2       37.2000   32.5100   58.3670 N.am   31  ASN31      -0.0877
     17  N         37.7370   30.0890   34.3710 N.3   242  GLN242     -0.1245
     18  CA        38.2280   31.4570   34.5490 C.3   242  GLN242      0.1566
     19  C         39.6730   31.6090   34.0880 C.2   242  GLN242      0.2260
     20  O         40.1020   32.7070   33.7210 O.2   242  GLN242     -0.2867
     21  CB        38.0880   31.8960   36.0090 C.3   242  GLN242      0.0367
     22  CG        38.9330   31.1340   37.0020 C.3   242  GLN242      0.0905
     23  CD        38.5930   31.5180   38.4310 C.2   242  GLN242      0.2608
     24  OE1       37.4660   31.3240   38.8810 O.2   242  GLN242     -0.2717
     25  NE2       39.5640   32.0750   39.1470 N.am  242  GLN242     -0.0878
     26  N         39.7880   27.8610   50.5420 N.3   314  HIS314     -0.1226
     27  CA        40.0620   28.9750   49.6340 C.3   314  HIS314      0.1752
     28  C         41.0980   29.9130   50.2440 C.2   314  HIS314      0.2596
     29  O         40.8890   30.4740   51.3190 O.2   314  HIS314     -0.2718
     30  CB        38.7900   29.7580   49.3140 C.3   314  HIS314      0.0759
     31  CG        38.9410   30.6740   48.1420 C.ar  314  HIS314      0.0818
     32  ND1       38.6560   30.2840   46.8500 N.ar  314  HIS314     -0.2268
     33  CD2       39.3910   31.9470   48.0610 C.ar  314  HIS314      0.1154
     34  CE1       38.9230   31.2810   46.0240 C.ar  314  HIS314      0.1986
     35  NE2       39.3710   32.3010   46.7340 N.ar  314  HIS314     -0.2212
     36  N         42.2090   30.0820   49.5350 N.am  315  ALA315     -0.1966
     37  CA        43.3270   30.9070   49.9890 C.3   315  ALA315      0.1728
     38  C         42.9890   32.3430   50.3570 C.2   315  ALA315      0.2617
     39  O         42.2430   33.0160   49.6520 O.2   315  ALA315     -0.2715
     40  CB        44.4240   30.9030   48.9270 C.3   315  ALA315      0.0334
     41  N         43.5500   32.8100   51.4700 N.am  316  SER316     -0.1936
     42  CA        43.3330   34.1870   51.9000 C.3   316  SER316      0.2055
     43  C         44.4540   34.6810   52.8080 C.2   316  SER316      0.2643
     44  O         45.1420   33.8890   53.4590 O.2   316  SER316     -0.2714
     45  CB        41.9670   34.3440   52.5890 C.3   316  SER316      0.2130
     46  OG        41.8040   33.4640   53.6860 O.3   316  SER316     -0.2179
     47  N         44.6430   35.9990   52.8240 N.am  317  ALA317     -0.1963
     48  CA        45.6800   36.6410   53.6290 C.3   317  ALA317      0.1728
     49  C         45.0030   37.4040   54.7580 C.2   317  ALA317      0.2616
     50  O         44.0050   38.0880   54.5330 O.2   317  ALA317     -0.2715
     51  CB        46.4940   37.5910   52.7640 C.3   317  ALA317      0.0334
     52  N         45.5700   37.3100   55.9590 N.am  318  TRP318     -0.1974
     53  CA        44.9840   37.9350   57.1400 C.3   318  TRP318      0.1640
     54  C         45.8160   38.9820   57.8810 C.2   318  TRP318      0.2290
     55  O         47.0070   38.7910   58.1360 O.2   318  TRP318     -0.2864
     56  CB        44.5990   36.8360   58.1430 C.3   318  TRP318      0.0576
     57  CG        43.5970   35.8480   57.6250 C.ar  318  TRP318      0.0006
     58  CD1       43.6880   35.0950   56.4840 C.ar  318  TRP318      0.0946
     59  CD2       42.3380   35.5210   58.2200 C.ar  318  TRP318      0.0152
     60  NE1       42.5590   34.3260   56.3310 N.ar  318  TRP318     -0.2442
     61  CE2       41.7140   34.5670   57.3830 C.ar  318  TRP318      0.0810
     62  CE3       41.6740   35.9450   59.3820 C.ar  318  TRP318      0.0012
     63  CZ2       40.4540   34.0290   57.6710 C.ar  318  TRP318      0.0191
     64  CZ3       40.4220   35.4100   59.6680 C.ar  318  TRP318      0.0001
     65  CH2       39.8250   34.4610   58.8140 C.ar  318  TRP318      0.0015
     66  N         49.6160   31.5220   43.2340 N.3   341  VAL341     -0.1245
     67  CA        48.6590   31.9250   44.2590 C.3   341  VAL341      0.1561
     68  C         49.4090   32.2840   45.5460 C.2   341  VAL341      0.2260
     69  O         49.0350   33.2180   46.2540 O.2   341  VAL341     -0.2867
     70  CB        47.6350   30.8040   44.5500 C.3   341  VAL341      0.0252
     71  CG1       46.7950   31.1610   45.7700 C.3   341  VAL341      0.0019
     72  CG2       46.7260   30.6160   43.3460 C.3   341  VAL341      0.0019
     73  N         50.5740   35.6680   45.1610 N.3   344  HIS344     -0.1226
     74  CA        49.4130   36.5530   45.2170 C.3   344  HIS344      0.1752
     75  C         49.1020   36.8850   46.6750 C.2   344  HIS344      0.2595
     76  O         48.9580   38.0520   47.0460 O.2   344  HIS344     -0.2718
     77  CB        48.1970   35.8570   44.5970 C.3   344  HIS344      0.0759
     78  CG        46.9370   36.6620   44.6810 C.ar  344  HIS344      0.0818
     79  ND1       46.5910   37.6050   43.7370 N.ar  344  HIS344     -0.2268
     80  CD2       45.9630   36.6960   45.6210 C.ar  344  HIS344      0.1154
     81  CE1       45.4580   38.1850   44.0920 C.ar  344  HIS344      0.1986
     82  NE2       45.0560   37.6520   45.2320 N.ar  344  HIS344     -0.2212
     83  N         48.9960   35.8460   47.4970 N.am  345  GLU345     -0.1979
     84  CA        48.6810   36.0180   48.9110 C.3   345  GLU345      0.1602
     85  C         49.7940   36.7270   49.6730 C.2   345  GLU345      0.2287
     86  O         49.5250   37.5400   50.5540 O.2   345  GLU345     -0.2864
     87  CB        48.3910   34.6590   49.5560 C.3   345  GLU345      0.0415
     88  CG        47.2040   33.8990   48.9490 C.3   345  GLU345      0.1163
     89  CD        45.8890   34.6720   49.0280 C.2   345  GLU345      0.3649
     90  OE1       45.7460   35.5250   49.9300 O.co2 345  GLU345     -0.2457
     91  OE2       44.9940   34.4150   48.1940 O.co2 345  GLU345     -0.2457
     92  N         49.4750   40.3780   49.5000 N.3   348  HIS348     -0.1241
     93  CA        48.5410   40.9940   50.4380 C.3   348  HIS348      0.1621
     94  C         49.2710   41.2210   51.7570 C.2   348  HIS348      0.2264
     95  O         49.1640   42.2870   52.3650 O.2   348  HIS348     -0.2867
     96  CB        47.3310   40.0890   50.6920 C.3   348  HIS348      0.0745
     97  CG        46.3430   40.0600   49.5670 C.ar  348  HIS348      0.0817
     98  ND1       45.8020   41.2050   49.0230 N.ar  348  HIS348     -0.2268
     99  CD2       45.7530   39.0230   48.9250 C.ar  348  HIS348      0.1154
    100  CE1       44.9190   40.8750   48.0970 C.ar  348  HIS348      0.1986
    101  NE2       44.8700   39.5580   48.0180 N.ar  348  HIS348     -0.2212
    102  N         45.1460   43.5400   45.2320 N.3   372  GLU372     -0.1245
    103  CA        45.1880   42.2880   44.4800 C.3   372  GLU372      0.1567
    104  C         46.3610   42.1770   43.5040 C.2   372  GLU372      0.2260
    105  O         46.8050   41.0740   43.1800 O.2   372  GLU372     -0.2867
    106  CB        43.8960   42.1170   43.6790 C.3   372  GLU372      0.0388
    107  CG        42.6330   42.0310   44.5070 C.3   372  GLU372      0.1160
    108  CD        42.7010   40.9300   45.5450 C.2   372  GLU372      0.3649
    109  OE1       43.3640   39.9040   45.2810 O.co2 372  GLU372     -0.2457
    110  OE2       42.0800   41.0910   46.6150 O.co2 372  GLU372     -0.2457
    111  N         50.7380   39.4940   42.2290 N.3   376  ASP376     -0.1239
    112  CA        50.6960   39.1030   40.8240 C.3   376  ASP376      0.1674
    113  C         51.8420   39.6970   40.0260 C.2   376  ASP376      0.2266
    114  O         52.3720   39.0490   39.1240 O.2   376  ASP376     -0.2867
    115  CB        49.3580   39.5150   40.2050 C.3   376  ASP376      0.1410
    116  CG        48.2270   38.5990   40.6220 C.2   376  ASP376      0.3668
    117  OD1       48.3060   38.0390   41.7340 O.co2 376  ASP376     -0.2456
    118  OD2       47.2550   38.4450   39.8490 O.co2 376  ASP376     -0.2456
    119  N         41.1400   35.2120   31.7470 N.3   414  PHE414     -0.1241
    120  CA        40.5100   35.7110   32.9660 C.3   414  PHE414      0.1605
    121  C         39.8250   37.0720   32.8380 C.2   414  PHE414      0.2264
    122  O         38.9390   37.4000   33.6280 O.2   414  PHE414     -0.2867
    123  CB        41.5540   35.7890   34.0800 C.3   414  PHE414      0.0534
    124  CG        40.9800   36.1220   35.4270 C.ar  414  PHE414     -0.0203
    125  CD1       40.2030   35.1960   36.1120 C.ar  414  PHE414     -0.0042
    126  CD2       41.2430   37.3540   36.0230 C.ar  414  PHE414     -0.0042
    127  CE1       39.6960   35.4840   37.3790 C.ar  414  PHE414     -0.0003
    128  CE2       40.7420   37.6550   37.2910 C.ar  414  PHE414     -0.0003
    129  CZ        39.9680   36.7160   37.9690 C.ar  414  PHE414     -0.0000
    130  N         30.6670   29.4900   42.9780 N.3   468  LYS468     -0.1231
    131  CA        31.9070   30.2640   42.9000 C.3   468  LYS468      0.1693
    132  C         32.1110   30.9410   44.2620 C.2   468  LYS468      0.2592
    133  O         31.2800   31.7350   44.6900 O.2   468  LYS468     -0.2718
    134  CB        31.8070   31.3210   41.7910 C.3   468  LYS468      0.0285
    135  CG        33.0110   32.2770   41.7100 C.3   468  LYS468      0.0035
    136  CD        34.3190   31.5170   41.4930 C.3   468  LYS468      0.0206
    137  CE        35.5250   32.4520   41.5160 C.3   468  LYS468      0.1093
    138  NZ        36.8020   31.7030   41.3740 N.3   468  LYS468     -0.1314
    139  N         33.2230   30.6200   44.9240 N.am  469  PHE469     -0.1962
    140  CA        33.5600   31.1410   46.2570 C.3   469  PHE469      0.1771
    141  C         33.1010   32.5480   46.6410 C.2   469  PHE469      0.2619
    142  O         32.4030   32.7370   47.6390 O.2   469  PHE469     -0.2715
    143  CB        35.0800   31.0790   46.4740 C.3   469  PHE469      0.0574
    144  CG        35.5300   31.6290   47.8060 C.ar  469  PHE469     -0.0200
    145  CD1       35.4630   30.8480   48.9580 C.ar  469  PHE469     -0.0042
    146  CD2       36.0220   32.9270   47.9080 C.ar  469  PHE469     -0.0042
    147  CE1       35.8830   31.3510   50.1900 C.ar  469  PHE469     -0.0003
    148  CE2       36.4460   33.4430   49.1360 C.ar  469  PHE469     -0.0003
    149  CZ        36.3750   32.6510   50.2810 C.ar  469  PHE469     -0.0000
    150  N         33.5130   33.5370   45.8590 N.am  470  HIS470     -0.1973
    151  CA        33.2070   34.9270   46.1710 C.3   470  HIS470      0.1656
    152  C         31.7310   35.2880   46.2930 C.2   470  HIS470      0.2291
    153  O         31.3940   36.2800   46.9410 O.2   470  HIS470     -0.2864
    154  CB        33.9030   35.8410   45.1550 C.3   470  HIS470      0.0771
    155  CG        35.3780   35.6020   45.0530 C.ar  470  HIS470      0.0820
    156  ND1       35.9090   34.4320   44.5540 N.ar  470  HIS470     -0.2267
    157  CD2       36.4350   36.3680   45.4170 C.ar  470  HIS470      0.1154
    158  CE1       37.2280   34.4860   44.6130 C.ar  470  HIS470      0.1986
    159  NE2       37.5730   35.6520   45.1320 N.ar  470  HIS470     -0.2212
    160  N         30.5530   33.9240   49.7630 N.3   473  SER473     -0.1217
    161  CA        31.4630   34.5610   50.7150 C.3   473  SER473      0.1889
    162  C         31.3000   36.0720   50.7320 C.2   473  SER473      0.2288
    163  O         31.9010   36.7570   51.5570 O.2   473  SER473     -0.2866
    164  CB        32.9150   34.2230   50.3730 C.3   473  SER473      0.2089
    165  OG        33.1410   32.8250   50.3990 O.3   473  SER473     -0.2183
    166  N         32.4010   38.4310   48.6640 N.3   475  VAL475     -0.1245
    167  CA        33.6540   39.1450   48.4190 C.3   475  VAL475      0.1561
    168  C         33.5340   39.7830   47.0340 C.2   475  VAL475      0.2260
    169  O         33.3180   39.0820   46.0510 O.2   475  VAL475     -0.2867
    170  CB        34.8650   38.1800   48.4160 C.3   475  VAL475      0.0252
    171  CG1       36.1330   38.9280   48.0100 C.3   475  VAL475      0.0019
    172  CG2       35.0310   37.5560   49.7950 C.3   475  VAL475      0.0019
    173  N         34.1820   41.2580   43.3450 N.3   477  TYR477     -0.1241
    174  CA        35.0380   40.6770   42.3150 C.3   477  TYR477      0.1605
    175  C         35.6710   41.6330   41.3060 C.2   477  TYR477      0.2264
    176  O         36.6640   41.2840   40.6680 O.2   477  TYR477     -0.2867
    177  CB        34.2540   39.6200   41.5290 C.3   477  TYR477      0.0534
    178  CG        35.1170   38.4560   41.0910 C.ar  477  TYR477     -0.0201
    179  CD1       35.4250   37.4320   41.9810 C.ar  477  TYR477     -0.0009
    180  CD2       35.6760   38.4140   39.8140 C.ar  477  TYR477     -0.0009
    181  CE1       36.2700   36.3910   41.6240 C.ar  477  TYR477      0.0417
    182  CE2       36.5340   37.3720   39.4380 C.ar  477  TYR477      0.0417
    183  CZ        36.8270   36.3660   40.3540 C.ar  477  TYR477      0.1957
    184  OH        37.7050   35.3610   40.0320 O.3   477  TYR477     -0.2866
    185  N         37.5560   43.9140   41.6680 N.3   479  ARG479     -0.1231
    186  CA        38.9420   44.1540   42.0520 C.3   479  ARG479      0.1694
    187  C         39.9050   43.2990   41.2180 C.2   479  ARG479      0.2592
    188  O         41.0200   43.7280   40.9060 O.2   479  ARG479     -0.2718
    189  CB        39.1260   43.8360   43.5430 C.3   479  ARG479      0.0321
    190  CG        38.7240   42.4130   43.9330 C.3   479  ARG479      0.0489
    191  CD        38.6940   42.2320   45.4580 C.3   479  ARG479      0.2205
    192  NE        37.8680   43.2530   46.1030 N.pl3 479  ARG479     -0.0865
    193  CZ        37.5930   43.3030   47.4040 C.cat 479  ARG479      0.5346
    194  NH1       38.0730   42.3820   48.2280 N.pl3 479  ARG479      0.1354
    195  NH2       36.8350   44.2860   47.8850 N.pl3 479  ARG479      0.1354
    196  N         39.4810   42.0890   40.8530 N.am  480  TYR480     -0.1976
    197  CA        40.3480   41.2100   40.0690 C.3   480  TYR480      0.1639
    198  C         40.4820   41.6710   38.6260 C.2   480  TYR480      0.2290
    199  O         41.5240   41.4720   37.9990 O.2   480  TYR480     -0.2864
    200  CB        39.8400   39.7690   40.1270 C.3   480  TYR480      0.0560
    201  CG        39.7680   39.2490   41.5460 C.ar  480  TYR480     -0.0198
    202  CD1       38.5400   38.9640   42.1430 C.ar  480  TYR480     -0.0009
    203  CD2       40.9260   39.0750   42.3030 C.ar  480  TYR480     -0.0009
    204  CE1       38.4650   38.5150   43.4630 C.ar  480  TYR480      0.0417
    205  CE2       40.8660   38.6310   43.6220 C.ar  480  TYR480      0.0417
    206  CZ        39.6310   38.3530   44.1950 C.ar  480  TYR480      0.1957
    207  OH        39.5630   37.9210   45.4990 O.3   480  TYR480     -0.2866
    208  N         44.1360   42.7320   37.0890 N.3   484  PHE484     -0.1241
    209  CA        44.7910   42.1960   35.9070 C.3   484  PHE484      0.1605
    210  C         45.2150   43.2740   34.9230 C.2   484  PHE484      0.2264
    211  O         46.2190   43.1200   34.2260 O.2   484  PHE484     -0.2867
    212  CB        43.9110   41.1250   35.2480 C.3   484  PHE484      0.0534
    213  CG        44.0690   39.7660   35.8770 C.ar  484  PHE484     -0.0203
    214  CD1       43.9370   39.6070   37.2540 C.ar  484  PHE484     -0.0042
    215  CD2       44.4060   38.6580   35.1070 C.ar  484  PHE484     -0.0042
    216  CE1       44.1430   38.3660   37.8560 C.ar  484  PHE484     -0.0003
    217  CE2       44.6140   37.4140   35.6960 C.ar  484  PHE484     -0.0003
    218  CZ        44.4840   37.2670   37.0770 C.ar  484  PHE484     -0.0000
@<TRIPOS>BOND
     1   119   120    1
     2   121   120    1
     3   121   122    2
     4   120   123    1
     5    20    19    2
     6   123   124    1
     7    19    18    1
     8   211   210    2
     9    17    18    1
    10    18    21    1
    11   210   209    1
    12   215   217   ar
    13   215   213   ar
    14   212   213    1
    15   212   209    1
    16   124   126   ar
    17   124   125   ar
    18   217   218   ar
    19   213   214   ar
    20   209   208    1
    21    21    22    1
    22   126   128   ar
    23   125   127   ar
    24    22    23    1
    25   218   216   ar
    26   214   216   ar
    27   128   129   ar
    28   127   129   ar
    29   199   198    2
    30    23    24    2
    31    23    25   am
    32   198   197    1
    33   114   113    2
    34   182   180   ar
    35   182   183   ar
    36   180   178   ar
    37   118   116   ar
    38   113   112    1
    39   184   183    1
    40   197   200    1
    41   197   196    1
    42   200   201    1
    43   115   116    1
    44   115   112    1
    45   183   181   ar
    46   116   117   ar
    47   176   175    2
    48   112   111    1
    49   196   187   am
    50   188   187    2
    51   178   177    1
    52   178   179   ar
    53   187   186    1
    54   175   174    1
    55   138   137    1
    56   136   137    1
    57   136   135    1
    58   177   174    1
    59   201   202   ar
    60   201   203   ar
    61   181   179   ar
    62   185   186    1
    63   135   134    1
    64   134   131    1
    65   186   189    1
    66   202   204   ar
    67   203   205   ar
    68   174   173    1
    69   131   130    1
    70   131   132    1
    71   105   104    2
    72    66    67    1
    73    72    70    1
    74   204   206   ar
    75   104   103    1
    76   189   190    1
    77   205   206   ar
    78   106   103    1
    79   106   107    1
    80    79    81   ar
    81    79    78   ar
    82   190   191    1
    83    81    82   ar
    84   206   207    1
    85    67    70    1
    86    67    68    1
    87   132   133    2
    88   132   139   am
    89   103   102    1
    90   107   108    1
    91    70    71    1
    92   156   158   ar
    93   156   155   ar
    94    77    78    1
    95    77    74    1
    96   158   159   ar
    97    78    80   ar
    98   139   140    1
    99   155   154    1
   100   155   157   ar
   101   159   157   ar
   102   154   151    1
   103    73    74    1
   104    74    75    1
   105    82    80   ar
   106   109   108   ar
   107   191   192    1
   108   108   110   ar
   109    68    69    2
   110   150   151    1
   111   150   141   am
   112    34    35   ar
   113    34    32   ar
   114   169   168    2
   115   192   193    2
   116   151   152    1
   117   140   143    1
   118   140   141    1
   119   152   153    2
   120   143   144    1
   121   141   142    2
   122    75    76    2
   123    75    83   am
   124    35    33   ar
   125    32    31   ar
   126   168   167    1
   127   193   195    1
   128   193   194    1
   129    83    84    1
   130   144   146   ar
   131   144   145   ar
   132   146   148   ar
   133   171   170    1
   134   101   100   ar
   135   101    99   ar
   136    33    31   ar
   137   100    98   ar
   138    31    30    1
   139    91    89   ar
   140   170   167    1
   141   170   172    1
   142   167   166    1
   143    84    87    1
   144    84    85    1
   145    99    97   ar
   146    40    37    1
   147    88    89    1
   148    88    87    1
   149   145   147   ar
   150    98    97   ar
   151    89    90   ar
   152   148   149   ar
   153    30    27    1
   154    92    93    1
   155    36    37    1
   156    36    28   am
   157    97    96    1
   158    27    28    1
   159    27    26    1
   160    39    38    2
   161    85    86    2
   162   160   161    1
   163    37    38    1
   164   147   149   ar
   165    28    29    2
   166    38    41   am
   167   164   165    1
   168   164   161    1
   169    93    96    1
   170    93    94    1
   171   161   162    1
   172   162   163    2
   173    41    42    1
   174    94    95    2
   175    42    45    1
   176    42    43    1
   177    45    46    1
   178    51    48    1
   179    43    47   am
   180    43    44    2
   181    47    48    1
   182    48    49    1
   183    50    49    2
   184    49    52   am
   185    52    53    1
   186    60    58   ar
   187    60    61   ar
   188    58    57   ar
   189    15    14    2
   190    53    54    1
   191    53    56    1
   192    61    63   ar
   193    61    59   ar
   194    57    56    1
   195    57    59   ar
   196    63    65   ar
   197    14    16   am
   198    14    13    1
   199    54    55    2
   200    12    11    2
   201    59    62   ar
   202    13    10    1
   203    65    64   ar
   204    11    10    1
   205    10     9    1
   206     8     6   am
   207    62    64   ar
   208     7     6    2
   209     6     5    1
   210     4     3    2
   211     5     2    1
   212     3     2    1
   213     2     1    1
