@<TRIPOS>MOLECULE
tmp/1uzuA01.pdb
 131 129 0 0 0
SMALL
GASTEIGER

@<TRIPOS>ATOM
      1  N         34.0820   30.8300   36.6630 N.3   263  ASN263     -0.1225
      2  CA        34.7930   30.9640   35.3980 C.3   263  ASN263      0.1785
      3  C         34.5480   29.8000   34.4490 C.2   263  ASN263      0.2597
      4  O         34.7460   28.6360   34.8030 O.2   263  ASN263     -0.2718
      5  CB        36.2950   31.0970   35.6510 C.3   263  ASN263      0.1169
      6  CG        36.6210   32.2350   36.5870 C.2   263  ASN263      0.2627
      7  OD1       36.1660   33.3660   36.3870 O.2   263  ASN263     -0.2716
      8  ND2       37.4090   31.9480   37.6210 N.am  263  ASN263     -0.0877
      9  N         34.1030   30.1220   33.2430 N.am  264  ASP264     -0.1960
     10  CA        33.8640   29.1050   32.2370 C.3   264  ASP264      0.1840
     11  C         35.0100   29.2290   31.2390 C.2   264  ASP264      0.2622
     12  O         35.1780   30.2640   30.5980 O.2   264  ASP264     -0.2715
     13  CB        32.5250   29.3410   31.5330 C.3   264  ASP264      0.1450
     14  CG        32.1450   28.1960   30.6050 C.2   264  ASP264      0.3671
     15  OD1       31.7540   27.1190   31.1110 O.co2 264  ASP264     -0.2456
     16  OD2       32.2470   28.3660   29.3710 O.co2 264  ASP264     -0.2456
     17  N         35.8110   28.1790   31.1230 N.am  265  ASN265     -0.1958
     18  CA        36.9430   28.1880   30.2040 C.3   265  ASN265      0.1819
     19  C         37.9550   29.3070   30.4660 C.2   265  ASN265      0.2621
     20  O         38.4520   29.9320   29.5300 O.2   265  ASN265     -0.2715
     21  CB        36.4550   28.2700   28.7490 C.3   265  ASN265      0.1195
     22  CG        36.0700   26.9110   28.1860 C.2   265  ASN265      0.2630
     23  OD1       36.8960   26.0020   28.1100 O.2   265  ASN265     -0.2716
     24  ND2       34.8120   26.7680   27.7890 N.am  265  ASN265     -0.0877
     25  N         38.2440   29.5700   31.7360 N.am  266  PHE266     -0.1974
     26  CA        39.2350   30.5780   32.0840 C.3   266  PHE266      0.1639
     27  C         39.9140   30.2190   33.3880 C.2   266  PHE266      0.2290
     28  O         39.2580   29.9060   34.3790 O.2   266  PHE266     -0.2864
     29  CB        38.6320   31.9670   32.2310 C.3   266  PHE266      0.0560
     30  CG        39.6680   33.0390   32.4380 C.ar  266  PHE266     -0.0200
     31  CD1       40.3920   33.5420   31.3590 C.ar  266  PHE266     -0.0042
     32  CD2       39.9430   33.5270   33.7120 C.ar  266  PHE266     -0.0042
     33  CE1       41.3710   34.5190   31.5430 C.ar  266  PHE266     -0.0003
     34  CE2       40.9240   34.5060   33.9110 C.ar  266  PHE266     -0.0003
     35  CZ        41.6360   35.0020   32.8250 C.ar  266  PHE266     -0.0000
     36  N         41.8880   31.1470   36.6570 N.3   268  GLU268     -0.1245
     37  CA        42.1710   32.2190   37.6010 C.3   268  GLU268      0.1567
     38  C         43.0400   31.5470   38.6620 C.2   268  GLU268      0.2260
     39  O         42.5890   30.6260   39.3480 O.2   268  GLU268     -0.2867
     40  CB        40.8760   32.7580   38.2140 C.3   268  GLU268      0.0388
     41  CG        41.0770   34.0150   39.0480 C.3   268  GLU268      0.1160
     42  CD        39.7780   34.5750   39.6170 C.2   268  GLU268      0.3649
     43  OE1       39.8510   35.5450   40.4000 O.co2 268  GLU268     -0.2457
     44  OE2       38.6910   34.0530   39.2810 O.co2 268  GLU268     -0.2457
     45  N         43.9980   31.7090   41.8100 N.3   270  LYS270     -0.1245
     46  CA        43.8670   32.1130   43.2020 C.3   270  LYS270      0.1561
     47  C         44.1180   30.9230   44.1190 C.2   270  LYS270      0.2260
     48  O         43.7890   29.7870   43.7830 O.2   270  LYS270     -0.2867
     49  CB        42.4720   32.6820   43.4620 C.3   270  LYS270      0.0271
     50  CG        42.1640   33.9580   42.6910 C.3   270  LYS270      0.0035
     51  CD        43.0960   35.0910   43.0930 C.3   270  LYS270      0.0206
     52  CE        42.6100   36.4410   42.5610 C.3   270  LYS270      0.1093
     53  NZ        42.5260   36.5040   41.0710 N.3   270  LYS270     -0.1314
     54  N         44.0370   30.5780   27.4860 N.3   354  GLU354     -0.1245
     55  CA        43.6470   31.2330   28.7280 C.3   354  GLU354      0.1567
     56  C         42.9120   30.3020   29.6980 C.2   354  GLU354      0.2260
     57  O         42.6680   30.6730   30.8430 O.2   354  GLU354     -0.2867
     58  CB        42.7800   32.4670   28.4350 C.3   354  GLU354      0.0388
     59  CG        41.5140   32.1740   27.6590 C.3   354  GLU354      0.1160
     60  CD        41.7010   32.3290   26.1680 C.2   354  GLU354      0.3649
     61  OE1       42.7300   31.8530   25.6490 O.co2 354  GLU354     -0.2457
     62  OE2       40.8160   32.9220   25.5130 O.co2 354  GLU354     -0.2457
     63  N         30.6820   34.2820   25.8170 N.3   543  HIS543     -0.1226
     64  CA        32.1020   34.1780   25.4860 C.3   543  HIS543      0.1752
     65  C         32.3950   34.8170   24.1430 C.2   543  HIS543      0.2595
     66  O         31.5460   34.8210   23.2490 O.2   543  HIS543     -0.2718
     67  CB        32.5180   32.7130   25.3850 C.3   543  HIS543      0.0759
     68  CG        33.1990   32.1870   26.6020 C.ar  543  HIS543      0.0818
     69  ND1       34.4580   32.5980   26.9850 N.ar  543  HIS543     -0.2268
     70  CD2       32.8050   31.2700   27.5190 C.ar  543  HIS543      0.1154
     71  CE1       34.8110   31.9560   28.0850 C.ar  543  HIS543      0.1986
     72  NE2       33.8250   31.1440   28.4300 N.ar  543  HIS543     -0.2212
     73  N         33.6050   35.3370   23.9860 N.am  544  GLU544     -0.1979
     74  CA        33.9750   35.9220   22.7090 C.3   544  GLU544      0.1602
     75  C         34.0910   34.8130   21.6680 C.2   544  GLU544      0.2287
     76  O         33.7610   35.0230   20.5000 O.2   544  GLU544     -0.2864
     77  CB        35.3040   36.6760   22.8290 C.3   544  GLU544      0.0415
     78  CG        35.2240   37.8870   23.7200 C.3   544  GLU544      0.1163
     79  CD        36.5440   38.5950   23.8630 C.2   544  GLU544      0.3649
     80  OE1       36.9460   39.2910   22.9070 O.co2 544  GLU544     -0.2457
     81  OE2       37.1860   38.4420   24.9230 O.co2 544  GLU544     -0.2457
     82  N         31.1390   35.6030   33.2610 N.3   582  ALA582     -0.1231
     83  CA        31.9190   35.4790   34.4870 C.3   582  ALA582      0.1679
     84  C         32.0490   36.9100   35.0220 C.2   582  ALA582      0.2434
     85  O         32.2780   37.8460   34.2510 O.2   582  ALA582     -0.2733
     86  CB        33.2880   34.9000   34.1830 C.3   582  ALA582      0.0304
     87  N         31.8820   37.1030   36.3410 N.am  583  PRO583     -0.2718
     88  CA        31.9760   38.4210   36.9840 C.3   583  PRO583      0.1535
     89  C         33.1480   39.3220   36.5650 C.2   583  PRO583      0.2599
     90  O         32.9680   40.5300   36.3970 O.2   583  PRO583     -0.2715
     91  CB        32.0140   38.0690   38.4650 C.3   583  PRO583      0.0310
     92  CG        31.1080   36.8840   38.5250 C.3   583  PRO583      0.0237
     93  CD        31.5600   36.0660   37.3370 C.3   583  PRO583      0.0939
     94  N         34.3370   38.7480   36.3940 N.am  584  GLY584     -0.1941
     95  CA        35.4800   39.5580   36.0000 C.3   584  GLY584      0.2014
     96  C         35.7850   39.6120   34.5090 C.2   584  GLY584      0.2638
     97  O         36.8190   40.1490   34.1090 O.2   584  GLY584     -0.2714
     98  N         34.8940   39.0550   33.6880 N.am  585  TYR585     -0.1973
     99  CA        35.0600   39.0250   32.2300 C.3   585  TYR585      0.1639
    100  C         34.3800   40.2560   31.6420 C.2   585  TYR585      0.2290
    101  O         33.2170   40.2050   31.2240 O.2   585  TYR585     -0.2864
    102  CB        34.4210   37.7490   31.6680 C.3   585  TYR585      0.0560
    103  CG        34.7220   37.4380   30.2090 C.ar  585  TYR585     -0.0198
    104  CD1       34.2940   36.2350   29.6390 C.ar  585  TYR585     -0.0009
    105  CD2       35.4350   38.3280   29.4060 C.ar  585  TYR585     -0.0009
    106  CE1       34.5740   35.9210   28.3120 C.ar  585  TYR585      0.0417
    107  CE2       35.7180   38.0310   28.0740 C.ar  585  TYR585      0.0417
    108  CZ        35.2900   36.8220   27.5330 C.ar  585  TYR585      0.1957
    109  OH        35.6440   36.4780   26.2440 O.3   585  TYR585     -0.2866
    110  N         40.3100   37.9980   18.1190 N.3   742  ARG742     -0.1231
    111  CA        40.9410   36.6890   18.0120 C.3   742  ARG742      0.1694
    112  C         40.0170   35.6840   17.3430 C.2   742  ARG742      0.2592
    113  O         40.4680   34.6470   16.8670 O.2   742  ARG742     -0.2718
    114  CB        41.2890   36.1430   19.3970 C.3   742  ARG742      0.0321
    115  CG        42.2470   36.9820   20.2180 C.3   742  ARG742      0.0489
    116  CD        42.2430   36.4940   21.6550 C.3   742  ARG742      0.2205
    117  NE        42.5590   35.0690   21.7430 N.pl3 742  ARG742     -0.0865
    118  CZ        42.1900   34.2810   22.7510 C.cat 742  ARG742      0.5346
    119  NH1       41.4840   34.7780   23.7610 N.pl3 742  ARG742      0.1354
    120  NH2       42.5270   32.9980   22.7500 N.pl3 742  ARG742      0.1354
    121  N         38.7270   35.9970   17.2940 N.am  743  PHE743     -0.1976
    122  CA        37.7640   35.0630   16.7360 C.3   743  PHE743      0.1639
    123  C         37.1510   35.4280   15.3920 C.2   743  PHE743      0.2290
    124  O         36.1860   34.8050   14.9430 O.2   743  PHE743     -0.2864
    125  CB        36.7080   34.8030   17.8020 C.3   743  PHE743      0.0560
    126  CG        37.3100   34.4050   19.1170 C.ar  743  PHE743     -0.0200
    127  CD1       37.8950   33.1490   19.2730 C.ar  743  PHE743     -0.0042
    128  CD2       37.3890   35.3170   20.1680 C.ar  743  PHE743     -0.0042
    129  CE1       38.5570   32.8040   20.4550 C.ar  743  PHE743     -0.0003
    130  CE2       38.0470   34.9820   21.3510 C.ar  743  PHE743     -0.0003
    131  CZ        38.6340   33.7220   21.4940 C.ar  743  PHE743     -0.0000
@<TRIPOS>BOND
     1   124   123    2
     2   123   122    1
     3   122   121    1
     4   122   125    1
     5   113   112    2
     6   121   112   am
     7   112   111    1
     8   125   126    1
     9   111   110    1
    10   111   114    1
    11   126   127   ar
    12   126   128   ar
    13   127   129   ar
    14   114   115    1
    15   128   130   ar
    16   115   116    1
    17   129   131   ar
    18    76    75    2
    19   130   131   ar
    20   116   117    1
    21    75    74    1
    22   117   118    2
    23    74    77    1
    24    74    73    1
    25   120   118    1
    26   118   119    1
    27    77    78    1
    28    80    79   ar
    29    66    65    2
    30    78    79    1
    31    79    81   ar
    32    73    65   am
    33    65    64    1
    34    67    64    1
    35    67    68    1
    36    64    63    1
    37    62    60   ar
    38    61    60   ar
    39    60    59    1
    40   109   108    1
    41    68    69   ar
    42    68    70   ar
    43    69    71   ar
    44    54    55    1
    45    70    72   ar
    46   108   107   ar
    47   108   106   ar
    48    59    58    1
    49    24    22   am
    50   107   105   ar
    51    71    72   ar
    52    23    22    2
    53    22    21    1
    54   106   104   ar
    55    58    55    1
    56    55    56    1
    57    21    18    1
    58    16    14   ar
    59   105   103   ar
    60    20    19    2
    61   104   103   ar
    62    56    57    2
    63    18    19    1
    64    18    17    1
    65   103   102    1
    66    19    25   am
    67    12    11    2
    68    14    15   ar
    69    14    13    1
    70    17    11   am
    71   101   100    2
    72    11    10    1
    73    31    33   ar
    74    31    30   ar
    75    13    10    1
    76    33    35   ar
    77   100    99    1
    78   102    99    1
    79    25    26    1
    80    26    29    1
    81    26    27    1
    82    99    98    1
    83    29    30    1
    84    10     9    1
    85    30    32   ar
    86    35    34   ar
    87     9     3   am
    88    82    83    1
    89    27    28    2
    90    98    96   am
    91    32    34   ar
    92    97    96    2
    93    86    83    1
    94    85    84    2
    95     3     4    2
    96     3     2    1
    97    83    84    1
    98    96    95    1
    99    84    87   am
   100     2     5    1
   101     2     1    1
   102     5     6    1
   103    95    94    1
   104    87    88    1
   105    87    93    1
   106     7     6    2
   107    94    89   am
   108    90    89    2
   109    89    88    1
   110     6     8   am
   111    36    37    1
   112    88    91    1
   113    93    92    1
   114    37    40    1
   115    37    38    1
   116    40    41    1
   117    91    92    1
   118    38    39    2
   119    41    42    1
   120    44    42   ar
   121    42    43   ar
   122    53    52    1
   123    45    46    1
   124    52    51    1
   125    50    51    1
   126    50    49    1
   127    46    49    1
   128    46    47    1
   129    48    47    2
