@<TRIPOS>MOLECULE
tmp/1uzvD00.pdb
 79 74 0 0 0
SMALL
GASTEIGER

@<TRIPOS>ATOM
      1  N          3.7540   48.1760   41.0850 N.3    21  ASN21      -0.1225
      2  CA         4.1350   48.7560   42.3570 C.3    21  ASN21       0.1785
      3  C          4.7990   50.1050   42.1270 C.2    21  ASN21       0.2598
      4  O          6.0230   50.2580   42.2850 O.2    21  ASN21      -0.2718
      5  CB         5.1020   47.8690   43.1180 C.3    21  ASN21       0.1169
      6  CG         4.5040   46.5840   43.5910 C.2    21  ASN21       0.2627
      7  OD1        3.7910   46.5500   44.6050 O.2    21  ASN21      -0.2716
      8  ND2        4.7700   45.5040   42.8410 N.am   21  ASN21      -0.0877
      9  N          4.0400   51.1170   41.7190 N.am   22  SER22      -0.1938
     10  CA         4.5670   52.4130   41.3510 C.3    22  SER22       0.2055
     11  C          3.4390   53.4220   41.2840 C.2    22  SER22       0.2643
     12  O          2.2940   53.0790   40.9720 O.2    22  SER22      -0.2714
     13  CB         5.2350   52.3030   39.9670 C.3    22  SER22       0.2130
     14  OG         5.6680   53.5810   39.5530 O.3    22  SER22      -0.2179
     15  N          3.7760   54.7020   41.4470 N.am   23  SER23      -0.1949
     16  CA         2.8320   55.7450   41.1370 C.3    23  SER23       0.1924
     17  C          2.4960   55.8640   39.6530 C.2    23  SER23       0.2314
     18  O          1.4620   56.4330   39.3310 O.2    23  SER23      -0.2863
     19  CB         3.3730   57.1040   41.6370 C.3    23  SER23       0.2116
     20  OG         4.5640   57.4470   40.9350 O.3    23  SER23      -0.2180
     21  N          0.0930   50.7410   43.6790 N.3    45  THR45      -0.1218
     22  CA         1.1890   50.6650   44.6150 C.3    45  THR45       0.1862
     23  C          1.0420   49.5030   45.6010 C.2    45  THR45       0.2287
     24  O          1.7380   49.4420   46.6060 O.2    45  THR45      -0.2866
     25  CB         1.4070   51.9870   45.3800 C.3    45  THR45       0.1770
     26  OG1        0.1430   52.4630   45.8560 O.3    45  THR45      -0.2211
     27  CG2        1.9860   53.0310   44.4620 C.3    45  THR45       0.0375
     28  N         12.4340   49.1120   36.6050 N.3    95  GLU95      -0.1231
     29  CA        12.5760   50.3570   37.3660 C.3    95  GLU95       0.1699
     30  C         12.2410   51.5320   36.4590 C.2    95  GLU95       0.2592
     31  O         12.8280   51.7120   35.3920 O.2    95  GLU95      -0.2718
     32  CB        14.0090   50.4810   37.8890 C.3    95  GLU95       0.0402
     33  CG        14.2940   51.7760   38.6430 C.3    95  GLU95       0.1161
     34  CD        13.3250   51.9680   39.8120 C.2    95  GLU95       0.3649
     35  OE1       13.0920   51.0210   40.6110 O.co2  95  GLU95      -0.2457
     36  OE2       12.7270   53.0740   39.9500 O.co2  95  GLU95      -0.2457
     37  N         11.3050   52.3580   36.9530 N.am   96  ASP96      -0.1960
     38  CA        10.7890   53.5170   36.2150 C.3    96  ASP96       0.1840
     39  C         11.2910   54.8630   36.8220 C.2    96  ASP96       0.2623
     40  O         10.9210   55.9040   36.2730 O.2    96  ASP96      -0.2715
     41  CB         9.2710   53.4790   36.1420 C.3    96  ASP96       0.1450
     42  CG         8.5240   53.6950   37.4570 C.2    96  ASP96       0.3671
     43  OD1        9.1440   54.2590   38.3950 O.co2  96  ASP96      -0.2456
     44  OD2        7.3720   53.2660   37.5600 O.co2  96  ASP96      -0.2456
     45  N         12.0640   54.8280   37.8950 N.am   97  GLY97      -0.1940
     46  CA        12.4140   56.0220   38.6230 C.3    97  GLY97       0.2014
     47  C         13.8250   55.9760   39.1500 C.2    97  GLY97       0.2640
     48  O         14.7210   55.5270   38.4230 O.2    97  GLY97      -0.2714
     49  N         14.0360   56.4050   40.3810 N.am   98  THR98      -0.1936
     50  CA        15.3410   56.5960   40.9760 C.3    98  THR98       0.2028
     51  C         15.6110   55.7280   42.1850 C.2    98  THR98       0.2642
     52  O         16.7690   55.6660   42.6290 O.2    98  THR98      -0.2714
     53  CB        15.5210   58.0610   41.3850 C.3    98  THR98       0.1808
     54  OG1       14.5200   58.4120   42.3170 O.3    98  THR98      -0.2208
     55  CG2       15.3930   58.9720   40.1480 C.3    98  THR98       0.0379
     56  N         14.6160   55.0770   42.7530 N.am   99  ASP99      -0.1971
     57  CA        14.8520   54.3410   44.0050 C.3    99  ASP99       0.1709
     58  C         15.4540   52.9820   43.7930 C.2    99  ASP99       0.2293
     59  O         15.9210   52.3550   44.7580 O.2    99  ASP99      -0.2864
     60  CB        13.5750   54.3080   44.8530 C.3    99  ASP99       0.1436
     61  CG        12.4410   53.5120   44.2780 C.2    99  ASP99       0.3671
     62  OD1       12.5230   53.0640   43.1530 O.co2  99  ASP99      -0.2456
     63  OD2       11.4070   53.3520   45.0110 O.co2  99  ASP99      -0.2456
     64  N         14.1230   50.0930   43.3850 N.3   101  ASP101     -0.1239
     65  CA        13.4420   48.9180   43.9540 C.3   101  ASP101      0.1674
     66  C         13.1540   47.8590   42.8870 C.2   101  ASP101      0.2266
     67  O         12.9750   46.6910   43.2370 O.2   101  ASP101     -0.2867
     68  CB        12.2250   49.2680   44.7720 C.3   101  ASP101      0.1410
     69  CG        11.0380   49.9460   44.1030 C.2   101  ASP101      0.3668
     70  OD1       11.1530   50.2520   42.8680 O.co2 101  ASP101     -0.2456
     71  OD2       10.0180   50.1880   44.7500 O.co2 101  ASP101     -0.2456
     72  N          8.5780   48.0280   39.8800 N.3   104  ASP104     -0.1239
     73  CA         7.5390   48.9630   39.4420 C.3   104  ASP104      0.1674
     74  C          6.5320   48.2760   38.5300 C.2   104  ASP104      0.2266
     75  O          5.3200   48.4920   38.6530 O.2   104  ASP104     -0.2867
     76  CB         8.2230   50.1680   38.8000 C.3   104  ASP104      0.1410
     77  CG         9.1140   50.9040   39.8130 C.2   104  ASP104      0.3668
     78  OD1        8.7730   50.9950   41.0050 O.co2 104  ASP104     -0.2456
     79  OD2       10.1710   51.4280   39.3770 O.co2 104  ASP104     -0.2456
@<TRIPOS>BOND
     1    31    30    2
     2    41    38    1
     3    41    42    1
     4    38    39    1
     5    38    37    1
     6    40    39    2
     7    30    37   am
     8    30    29    1
     9    28    29    1
    10    39    45   am
    11    29    32    1
    12    42    44   ar
    13    42    43   ar
    14    32    33    1
    15    45    46    1
    16    48    47    2
    17    74    75    2
    18    74    73    1
    19    46    47    1
    20    33    34    1
    21    76    73    1
    22    76    77    1
    23    47    49   am
    24    18    17    2
    25    79    77   ar
    26    73    72    1
    27    14    13    1
    28    17    16    1
    29    34    36   ar
    30    34    35   ar
    31    77    78   ar
    32    13    10    1
    33    55    53    1
    34    49    50    1
    35    20    19    1
    36    12    11    2
    37    50    53    1
    38    50    51    1
    39     1     2    1
    40    16    15    1
    41    16    19    1
    42    11    10    1
    43    11    15   am
    44    10     9    1
    45    53    54    1
    46     9     3   am
    47     3     4    2
    48     3     2    1
    49    51    52    2
    50    51    56   am
    51     2     5    1
    52    56    57    1
    53     8     6   am
    54    70    69   ar
    55    66    67    2
    56    66    65    1
    57     5     6    1
    58    62    61   ar
    59    64    65    1
    60     6     7    2
    61    21    22    1
    62    58    57    1
    63    58    59    2
    64    65    68    1
    65    57    60    1
    66    69    71   ar
    67    69    68    1
    68    61    60    1
    69    61    63   ar
    70    27    25    1
    71    22    25    1
    72    22    23    1
    73    25    26    1
    74    23    24    2
