@<TRIPOS>MOLECULE
tmp/1uzxA00.pdb
 106 104 0 0 0
SMALL
GASTEIGER

@<TRIPOS>ATOM
      1  N         47.9570   42.7850   20.2270 N.3    45  PHE45      -0.1241
      2  CA        48.6660   43.0690   18.9860 C.3    45  PHE45       0.1605
      3  C         49.5420   44.2930   19.2380 C.2    45  PHE45       0.2264
      4  O         49.0580   45.2780   19.7750 O.2    45  PHE45      -0.2867
      5  CB        47.6590   43.4180   17.8950 C.3    45  PHE45       0.0534
      6  CG        48.2780   43.6500   16.5460 C.ar   45  PHE45      -0.0203
      7  CD1       48.4650   42.5860   15.6680 C.ar   45  PHE45      -0.0042
      8  CD2       48.6660   44.9350   16.1530 C.ar   45  PHE45      -0.0042
      9  CE1       49.0270   42.7940   14.4140 C.ar   45  PHE45      -0.0003
     10  CE2       49.2300   45.1560   14.9000 C.ar   45  PHE45      -0.0003
     11  CZ        49.4080   44.0810   14.0280 C.ar   45  PHE45      -0.0000
     12  N         51.2940   47.3220   17.6330 N.3    47  HIS47      -0.1226
     13  CA        51.3660   48.1140   16.4180 C.3    47  HIS47       0.1752
     14  C         52.7900   48.6150   16.1610 C.2    47  HIS47       0.2596
     15  O         53.6210   48.6390   17.0600 O.2    47  HIS47      -0.2718
     16  CB        50.4170   49.3090   16.5370 C.3    47  HIS47       0.0759
     17  CG        48.9750   48.9230   16.4810 C.ar   47  HIS47       0.0818
     18  ND1       48.3050   48.7720   15.2880 N.ar   47  HIS47      -0.2268
     19  CD2       48.0980   48.5780   17.4560 C.ar   47  HIS47       0.1154
     20  CE1       47.0740   48.3470   15.5270 C.ar   47  HIS47       0.1986
     21  NE2       46.9250   48.2210   16.8320 N.ar   47  HIS47      -0.2212
     22  N         53.0400   49.0540   14.9350 N.am   48  SER48      -0.1952
     23  CA        54.3640   49.5410   14.5530 C.3    48  SER48       0.1924
     24  C         54.8450   50.7220   15.3780 C.2    48  SER48       0.2314
     25  O         56.0560   50.9290   15.5410 O.2    48  SER48      -0.2863
     26  CB        54.3790   49.9050   13.0670 C.3    48  SER48       0.2116
     27  OG        54.1470   48.7540   12.2640 O.3    48  SER48      -0.2180
     28  N         47.3250   46.6490   21.5630 N.3    53  GLN53      -0.1245
     29  CA        45.8650   46.6600   21.4300 C.3    53  GLN53       0.1566
     30  C         45.3530   45.2300   21.3780 C.2    53  GLN53       0.2260
     31  O         45.7880   44.4440   20.5470 O.2    53  GLN53      -0.2867
     32  CB        45.4230   47.3970   20.1520 C.3    53  GLN53       0.0367
     33  CG        43.9160   47.2680   19.8610 C.3    53  GLN53       0.0905
     34  CD        43.4780   47.9600   18.5810 C.2    53  GLN53       0.2608
     35  OE1       44.1580   47.8940   17.5610 O.2    53  GLN53      -0.2717
     36  NE2       42.3060   48.6080   18.6260 N.am   53  GLN53      -0.0878
     37  N         43.0540   42.4220   20.3490 N.3    55  LEU55      -0.1245
     38  CA        42.2130   42.2310   19.1820 C.3    55  LEU55       0.1561
     39  C         41.8020   40.7920   19.0540 C.2    55  LEU55       0.2260
     40  O         42.4880   39.8870   19.5330 O.2    55  LEU55      -0.2867
     41  CB        42.9760   42.5950   17.8940 C.3    55  LEU55       0.0270
     42  CG        43.4420   44.0210   17.6210 C.3    55  LEU55       0.0019
     43  CD1       44.1950   44.0830   16.3120 C.3    55  LEU55       0.0001
     44  CD2       42.1810   44.9150   17.5540 C.3    55  LEU55       0.0001
     45  N         40.9610   44.0560   12.5980 N.3    73  PRO73      -0.2102
     46  CA        41.2140   45.4030   13.1250 C.3    73  PRO73       0.1504
     47  C         40.0140   46.0210   13.8110 C.2    73  PRO73       0.2576
     48  O         38.8770   45.7110   13.4580 O.2    73  PRO73      -0.2718
     49  CB        41.6670   46.1860   11.8880 C.3    73  PRO73       0.0282
     50  CG        40.8460   45.5580   10.7920 C.3    73  PRO73       0.0208
     51  CD        40.8360   44.0670   11.1310 C.3    73  PRO73       0.0893
     52  N         40.2600   46.8740   14.8050 N.am   74  SER74      -0.1953
     53  CA        39.1360   47.4530   15.5310 C.3    74  SER74       0.1924
     54  C         38.1990   48.2550   14.6260 C.2    74  SER74       0.2314
     55  O         37.0210   48.4120   14.9430 O.2    74  SER74      -0.2863
     56  CB        39.6150   48.2880   16.7390 C.3    74  SER74       0.2116
     57  OG        40.5460   49.2940   16.4010 O.3    74  SER74      -0.2180
     58  N         38.3740   49.0020    7.7120 N.3    78  LYS78      -0.1231
     59  CA        39.7570   48.5730    7.4660 C.3    78  LYS78       0.1678
     60  C         39.6980   47.0560    7.3410 C.2    78  LYS78       0.2434
     61  O         38.9680   46.4090    8.0810 O.2    78  LYS78      -0.2733
     62  CB        40.6700   48.9630    8.6350 C.3    78  LYS78       0.0284
     63  CG        41.0230   50.4490    8.6850 C.3    78  LYS78       0.0035
     64  CD        41.9430   50.7230    9.8550 C.3    78  LYS78       0.0206
     65  CE        42.7700   51.9640    9.6440 C.3    78  LYS78       0.1093
     66  NZ        43.8910   51.9920   10.6340 N.3    78  LYS78      -0.1314
     67  N         40.4520   46.4790    6.3900 N.am   79  PRO79      -0.2729
     68  CA        40.4970   45.0390    6.1440 C.3    79  PRO79       0.1401
     69  C         41.2900   44.2280    7.1660 C.2    79  PRO79       0.2269
     70  O         42.1250   44.7530    7.8930 O.2    79  PRO79      -0.2865
     71  CB        41.1560   44.9510    4.7750 C.3    79  PRO79       0.0296
     72  CG        42.1930   46.0510    4.8640 C.3    79  PRO79       0.0237
     73  CD        41.3520   47.1900    5.4610 C.3    79  PRO79       0.0939
     74  N         44.1300   41.3390    8.3490 N.3    81  PHE81      -0.1241
     75  CA        45.4790   41.1210    7.8260 C.3    81  PHE81       0.1605
     76  C         45.9050   39.7460    8.3230 C.2    81  PHE81       0.2264
     77  O         45.4990   39.3290    9.3990 O.2    81  PHE81      -0.2867
     78  CB        46.4690   42.2490    8.2120 C.3    81  PHE81       0.0534
     79  CG        46.2250   42.8750    9.5540 C.ar   81  PHE81      -0.0203
     80  CD1       47.0390   42.5610   10.6350 C.ar   81  PHE81      -0.0042
     81  CD2       45.2070   43.8150    9.7250 C.ar   81  PHE81      -0.0042
     82  CE1       46.8480   43.1720   11.8740 C.ar   81  PHE81      -0.0003
     83  CE2       45.0010   44.4350   10.9510 C.ar   81  PHE81      -0.0003
     84  CZ        45.8270   44.1150   12.0340 C.ar   81  PHE81      -0.0000
     85  N         56.5340   43.6870    5.5140 N.3   102  ASN102     -0.1240
     86  CA        56.0240   43.8240    6.8750 C.3   102  ASN102      0.1653
     87  C         55.5800   42.4610    7.4810 C.2   102  ASN102      0.2266
     88  O         55.0830   42.4140    8.6060 O.2   102  ASN102     -0.2867
     89  CB        54.8560   44.8210    6.8690 C.3   102  ASN102      0.1155
     90  CG        55.3160   46.2870    6.8160 C.2   102  ASN102      0.2627
     91  OD1       54.6390   47.1460    6.2530 O.2   102  ASN102     -0.2716
     92  ND2       56.4400   46.5710    7.4390 N.am  102  ASN102     -0.0877
     93  N         53.1630   40.3090    6.2920 N.3   104  TRP104     -0.1241
     94  CA        51.7650   39.9710    6.0430 C.3   104  TRP104      0.1605
     95  C         51.5780   39.2880    4.6850 C.2   104  TRP104      0.2264
     96  O         52.3140   39.5550    3.7380 O.2   104  TRP104     -0.2867
     97  CB        50.9160   41.2420    6.0600 C.3   104  TRP104      0.0550
     98  CG        51.0620   41.9870    7.3120 C.ar  104  TRP104      0.0003
     99  CD1       51.5590   43.2480    7.4740 C.ar  104  TRP104      0.0946
    100  CD2       50.7650   41.4930    8.6190 C.ar  104  TRP104      0.0152
    101  NE1       51.5910   43.5670    8.8180 N.ar  104  TRP104     -0.2442
    102  CE2       51.1110   42.5100    9.5360 C.ar  104  TRP104      0.0810
    103  CE3       50.2410   40.2870    9.1000 C.ar  104  TRP104      0.0012
    104  CZ2       50.9500   42.3550   10.9250 C.ar  104  TRP104      0.0191
    105  CZ3       50.0820   40.1300   10.4930 C.ar  104  TRP104      0.0001
    106  CH2       50.4360   41.1620   11.3780 C.ar  104  TRP104      0.0015
@<TRIPOS>BOND
     1    96    95    2
     2    95    94    1
     3    71    72    1
     4    71    68    1
     5    72    73    1
     6    73    67    1
     7    85    86    1
     8    94    97    1
     9    94    93    1
    10    97    98    1
    11    68    67    1
    12    68    69    1
    13    91    90    2
    14    67    60   am
    15    90    89    1
    16    90    92   am
    17    89    86    1
    18    86    87    1
    19    69    70    2
    20    98    99   ar
    21    98   100   ar
    22    60    59    1
    23    60    61    2
    24    59    58    1
    25    59    62    1
    26    99   101   ar
    27    87    88    2
    28    75    78    1
    29    75    76    1
    30    75    74    1
    31    78    79    1
    32    76    77    2
    33   100   103   ar
    34   100   102   ar
    35    62    63    1
    36    63    64    1
    37   101   102   ar
    38   103   105   ar
    39   102   104   ar
    40    79    81   ar
    41    79    80   ar
    42    65    64    1
    43    65    66    1
    44    81    83   ar
    45   105   106   ar
    46    80    82   ar
    47    50    51    1
    48    50    49    1
    49   104   106   ar
    50    83    84   ar
    51    51    45    1
    52    82    84   ar
    53    49    46    1
    54    27    26    1
    55    45    46    1
    56    26    23    1
    57    46    47    1
    58    48    47    2
    59    47    52   am
    60    11     9   ar
    61    11    10   ar
    62     9     7   ar
    63    23    22    1
    64    23    24    1
    65    54    55    2
    66    54    53    1
    67    52    53    1
    68    10     8   ar
    69    22    14   am
    70    18    20   ar
    71    18    17   ar
    72    24    25    2
    73    20    21   ar
    74    53    56    1
    75     7     6   ar
    76     8     6   ar
    77    14    13    1
    78    14    15    2
    79    43    42    1
    80    57    56    1
    81    13    16    1
    82    13    12    1
    83    17    16    1
    84    17    19   ar
    85     6     5    1
    86    21    19   ar
    87    44    42    1
    88    35    34    2
    89    42    41    1
    90    41    38    1
    91     5     2    1
    92    34    36   am
    93    34    33    1
    94     2     3    1
    95     2     1    1
    96    39    38    1
    97    39    40    2
    98    38    37    1
    99     3     4    2
   100    33    32    1
   101    32    29    1
   102    31    30    2
   103    30    29    1
   104    29    28    1
