@<TRIPOS>MOLECULE
tmp/1uzyB02.pdb
 90 88 0 0 0
SMALL
GASTEIGER

@<TRIPOS>ATOM
      1  N         41.8420   51.3820   64.3700 N.3    97  PRO97      -0.2102
      2  CA        41.3920   50.5910   65.5180 C.3    97  PRO97       0.1504
      3  C         41.1430   49.1350   65.1470 C.2    97  PRO97       0.2576
      4  O         40.6380   48.8370   64.0630 O.2    97  PRO97      -0.2718
      5  CB        40.1160   51.3070   65.9440 C.3    97  PRO97       0.0282
      6  CG        40.4160   52.7350   65.6030 C.3    97  PRO97       0.0208
      7  CD        41.0340   52.6060   64.2310 C.3    97  PRO97       0.0893
      8  N         41.5060   48.2300   66.0500 N.am   98  THR98      -0.1939
      9  CA        41.3170   46.8050   65.8220 C.3    98  THR98       0.2028
     10  C         39.8350   46.4490   65.8770 C.2    98  THR98       0.2642
     11  O         39.0240   47.2110   66.3970 O.2    98  THR98      -0.2714
     12  CB        42.0430   45.9700   66.8920 C.3    98  THR98       0.1808
     13  OG1       41.5260   46.3100   68.1830 O.3    98  THR98      -0.2208
     14  CG2       43.5390   46.2460   66.8660 C.3    98  THR98       0.0379
     15  N         39.4950   45.2890   65.3260 N.am   99  LYS99      -0.1963
     16  CA        38.1250   44.7900   65.3240 C.3    99  LYS99       0.1728
     17  C         37.1250   45.6670   64.5730 C.2    99  LYS99       0.2617
     18  O         35.9270   45.6040   64.8440 O.2    99  LYS99      -0.2715
     19  CB        37.6420   44.6120   66.7660 C.3    99  LYS99       0.0311
     20  CG        38.6480   43.9200   67.6800 C.3    99  LYS99       0.0038
     21  CD        38.1890   43.9430   69.1360 C.3    99  LYS99       0.0206
     22  CE        37.9090   45.3650   69.6210 C.3    99  LYS99       0.1093
     23  NZ        39.0910   46.2700   69.5010 N.3    99  LYS99      -0.1314
     24  N         37.6010   46.4790   63.6330 N.am  100  SER100     -0.1936
     25  CA        36.6950   47.3480   62.8840 C.3   100  SER100      0.2055
     26  C         35.9300   46.5720   61.8190 C.2   100  SER100      0.2643
     27  O         36.3640   45.5120   61.3720 O.2   100  SER100     -0.2714
     28  CB        37.4670   48.5010   62.2230 C.3   100  SER100      0.2130
     29  OG        38.3630   48.0350   61.2250 O.3   100  SER100     -0.2179
     30  N         34.7760   47.1040   61.4320 N.am  101  LYS101     -0.1963
     31  CA        33.9510   46.4890   60.4020 C.3   101  LYS101      0.1713
     32  C         33.8850   47.4720   59.2400 C.2   101  LYS101      0.2458
     33  O         34.1620   48.6590   59.4100 O.2   101  LYS101     -0.2730
     34  CB        32.5340   46.2200   60.9240 C.3   101  LYS101      0.0311
     35  CG        32.4610   45.2540   62.1030 C.3   101  LYS101      0.0038
     36  CD        32.9560   43.8650   61.7270 C.3   101  LYS101      0.0206
     37  CE        32.8450   42.9010   62.9030 C.3   101  LYS101      0.1093
     38  NZ        33.2850   41.5210   62.5380 N.3   101  LYS101     -0.1314
     39  N         33.5210   46.9930   58.0420 N.am  102  PRO102     -0.2716
     40  CA        33.4380   47.8950   56.8910 C.3   102  PRO102      0.1536
     41  C         32.6020   49.1380   57.2100 C.2   102  PRO102      0.2598
     42  O         31.5500   49.0390   57.8410 O.2   102  PRO102     -0.2715
     43  CB        32.7860   47.0240   55.8210 C.3   102  PRO102      0.0310
     44  CG        33.2920   45.6480   56.1580 C.3   102  PRO102      0.0237
     45  CD        33.1550   45.6160   57.6640 C.3   102  PRO102      0.0939
     46  N         33.0860   50.3010   56.7850 N.am  103  ALA103     -0.1978
     47  CA        32.3820   51.5610   56.9970 C.3   103  ALA103      0.1597
     48  C         31.5410   51.8130   55.7450 C.2   103  ALA103      0.2287
     49  O         31.1140   50.8690   55.0890 O.2   103  ALA103     -0.2864
     50  CB        33.3820   52.6910   57.2030 C.3   103  ALA103      0.0319
     51  N         36.1890   52.6030   54.4450 N.3   111  VAL111     -0.1245
     52  CA        36.9730   52.9900   55.6100 C.3   111  VAL111      0.1561
     53  C         36.4040   54.1650   56.4160 C.2   111  VAL111      0.2260
     54  O         36.5720   54.2180   57.6350 O.2   111  VAL111     -0.2867
     55  CB        38.4230   53.3250   55.1930 C.3   111  VAL111      0.0252
     56  CG1       39.2160   53.8030   56.3960 C.3   111  VAL111      0.0019
     57  CG2       39.0830   52.0860   54.5810 C.3   111  VAL111      0.0019
     58  N         32.9950   57.1510   57.1290 N.3   113  ASN113     -0.1240
     59  CA        31.5340   57.2320   57.1080 C.3   113  ASN113      0.1653
     60  C         30.9680   58.4660   56.4160 C.2   113  ASN113      0.2266
     61  O         29.7860   58.5100   56.0800 O.2   113  ASN113     -0.2867
     62  CB        30.9770   57.1260   58.5220 C.3   113  ASN113      0.1155
     63  CG        31.1260   55.7380   59.0860 C.2   113  ASN113      0.2627
     64  OD1       31.0030   54.7500   58.3650 O.2   113  ASN113     -0.2716
     65  ND2       31.3770   55.6470   60.3820 N.am  113  ASN113     -0.0877
     66  N         38.1500   60.7580   65.9110 N.3   120  SER120     -0.1202
     67  CA        37.5400   59.5220   66.3860 C.3   120  SER120      0.2020
     68  C         37.7750   58.3780   65.4050 C.2   120  SER120      0.2618
     69  O         37.6330   57.2070   65.7580 O.2   120  SER120     -0.2717
     70  CB        36.0390   59.7110   66.6120 C.3   120  SER120      0.2103
     71  OG        35.4750   58.5390   67.1710 O.3   120  SER120     -0.2182
     72  N         38.1190   58.7200   64.1680 N.am  121  TYR121     -0.1975
     73  CA        38.4060   57.7070   63.1570 C.3   121  TYR121      0.1639
     74  C         39.6870   56.9770   63.5360 C.2   121  TYR121      0.2290
     75  O         39.7810   55.7560   63.4080 O.2   121  TYR121     -0.2864
     76  CB        38.6020   58.3530   61.7840 C.3   121  TYR121      0.0560
     77  CG        37.3320   58.5770   61.0070 C.ar  121  TYR121     -0.0198
     78  CD1       36.5290   57.5010   60.6230 C.ar  121  TYR121     -0.0009
     79  CD2       36.9390   59.8590   60.6340 C.ar  121  TYR121     -0.0009
     80  CE1       35.3620   57.6990   59.8840 C.ar  121  TYR121      0.0417
     81  CE2       35.7810   60.0680   59.8960 C.ar  121  TYR121      0.0417
     82  CZ        34.9970   58.9830   59.5260 C.ar  121  TYR121      0.1957
     83  OH        33.8500   59.1840   58.8040 O.3   121  TYR121     -0.2866
     84  N         42.3500   56.7530   62.0390 N.3   123  THR123     -0.1218
     85  CA        42.7530   55.9920   60.8630 C.3   123  THR123      0.1862
     86  C         43.7220   56.7250   59.9390 C.2   123  THR123      0.2287
     87  O         43.5590   57.9130   59.6500 O.2   123  THR123     -0.2866
     88  CB        41.5170   55.5880   60.0210 C.3   123  THR123      0.1770
     89  OG1       40.6610   54.7460   60.7980 O.3   123  THR123     -0.2211
     90  CG2       41.9410   54.8450   58.7630 C.3   123  THR123      0.0375
@<TRIPOS>BOND
     1    51    52    1
     2    57    55    1
     3    49    48    2
     4    55    52    1
     5    55    56    1
     6    52    53    1
     7    48    47    1
     8    43    44    1
     9    43    40    1
    10    61    60    2
    11    44    45    1
    12    53    54    2
    13    60    59    1
    14    46    47    1
    15    46    41   am
    16    40    41    1
    17    40    39    1
    18    47    50    1
    19    59    58    1
    20    59    62    1
    21    41    42    2
    22    45    39    1
    23    39    32   am
    24    64    63    2
    25    62    63    1
    26    90    88    1
    27    83    82    1
    28    63    65   am
    29    32    33    2
    30    32    31    1
    31    82    80   ar
    32    82    81   ar
    33    87    86    2
    34    80    78   ar
    35    81    79   ar
    36    86    85    1
    37    88    89    1
    38    88    85    1
    39    31    34    1
    40    31    30    1
    41    78    77   ar
    42    79    77   ar
    43    85    84    1
    44    34    35    1
    45    77    76    1
    46    29    28    1
    47    27    26    2
    48    30    26   am
    49    36    35    1
    50    36    37    1
    51    76    73    1
    52    26    25    1
    53    28    25    1
    54    38    37    1
    55    25    24    1
    56    73    74    1
    57    73    72    1
    58    75    74    2
    59    24    17   am
    60     4     3    2
    61    72    68   am
    62     7     1    1
    63     7     6    1
    64     1     2    1
    65    17    18    2
    66    17    16    1
    67     3     2    1
    68     3     8   am
    69    16    15    1
    70    16    19    1
    71    15    10   am
    72    68    69    2
    73    68    67    1
    74     2     5    1
    75     6     5    1
    76     9    10    1
    77     9     8    1
    78     9    12    1
    79    10    11    2
    80    66    67    1
    81    67    70    1
    82    70    71    1
    83    19    20    1
    84    14    12    1
    85    12    13    1
    86    20    21    1
    87    21    22    1
    88    23    22    1
