@<TRIPOS>MOLECULE
tmp/1v03A00.pdb
 139 139 0 0 0
SMALL
GASTEIGER

@<TRIPOS>ATOM
      1  N         37.5700   42.3670   86.2090 N.3    29  GLN29      -0.1245
      2  CA        36.9840   43.6930   86.4200 C.3    29  GLN29       0.1566
      3  C         35.7360   43.9350   85.5600 C.2    29  GLN29       0.2260
      4  O         34.9620   44.8190   85.8740 O.2    29  GLN29      -0.2867
      5  CB        38.0220   44.7800   86.1380 C.3    29  GLN29       0.0367
      6  CG        39.1950   44.7120   87.1530 C.3    29  GLN29       0.0905
      7  CD        40.2090   45.7850   86.8950 C.2    29  GLN29       0.2608
      8  OE1       41.1330   45.5960   86.0770 O.2    29  GLN29      -0.2717
      9  NE2       40.0370   46.9130   87.5420 N.am   29  GLN29      -0.0878
     10  N         45.7870   38.5740   84.6060 N.3   133  HIS133     -0.1226
     11  CA        45.6160   39.8080   85.3470 C.3   133  HIS133      0.1752
     12  C         45.0590   39.5050   86.7440 C.2   133  HIS133      0.2596
     13  O         43.9380   39.9210   87.0780 O.2   133  HIS133     -0.2718
     14  CB        44.7250   40.7820   84.5450 C.3   133  HIS133      0.0759
     15  CG        44.7470   42.1980   85.0340 C.ar  133  HIS133      0.0818
     16  ND1       44.8440   43.2750   84.1780 N.ar  133  HIS133     -0.2268
     17  CD2       44.6450   42.7140   86.2780 C.ar  133  HIS133      0.1154
     18  CE1       44.7990   44.3940   84.8770 C.ar  133  HIS133      0.1986
     19  NE2       44.7030   44.0800   86.1560 N.ar  133  HIS133     -0.2212
     20  N         45.8410   38.7290   87.5150 N.am  134  TRP134     -0.1976
     21  CA        45.7510   38.6270   88.9680 C.3   134  TRP134      0.1640
     22  C         44.6920   37.6050   89.4530 C.2   134  TRP134      0.2290
     23  O         44.4910   37.4280   90.6570 O.2   134  TRP134     -0.2864
     24  CB        45.4450   39.9610   89.6270 C.3   134  TRP134      0.0576
     25  CG        46.2630   41.1970   89.2140 C.ar  134  TRP134      0.0006
     26  CD1       47.3850   41.2570   88.3940 C.ar  134  TRP134      0.0946
     27  CD2       45.9860   42.5350   89.6030 C.ar  134  TRP134      0.0152
     28  NE1       47.7940   42.5650   88.2610 N.ar  134  TRP134     -0.2442
     29  CE2       46.9560   43.3720   88.9890 C.ar  134  TRP134      0.0810
     30  CE3       45.0080   43.1260   90.4050 C.ar  134  TRP134      0.0012
     31  CZ2       46.9730   44.7560   89.1740 C.ar  134  TRP134      0.0191
     32  CZ3       45.0110   44.4950   90.5700 C.ar  134  TRP134      0.0001
     33  CH2       45.9910   45.3020   89.9560 C.ar  134  TRP134      0.0015
     34  N         50.9850   44.5120   85.1520 N.3   179  ASP179     -0.1239
     35  CA        51.3340   45.0490   86.4810 C.3   179  ASP179      0.1674
     36  C         51.8690   44.0120   87.4640 C.2   179  ASP179      0.2266
     37  O         51.3850   43.9190   88.5990 O.2   179  ASP179     -0.2867
     38  CB        50.1690   45.7790   87.1980 C.3   179  ASP179      0.1410
     39  CG        49.2710   46.5590   86.2570 C.2   179  ASP179      0.3668
     40  OD1       49.7260   47.5390   85.6180 O.co2 179  ASP179     -0.2456
     41  OD2       48.0580   46.2560   86.1180 O.co2 179  ASP179     -0.2456
     42  N         52.4300   45.5190   90.8600 N.3   182  THR182     -0.1218
     43  CA        51.2710   45.7430   91.7450 C.3   182  THR182      0.1862
     44  C         50.8580   44.3780   92.2820 C.2   182  THR182      0.2287
     45  O         50.5960   44.2010   93.4520 O.2   182  THR182     -0.2866
     46  CB        50.1250   46.3340   90.9330 C.3   182  THR182      0.1770
     47  OG1       50.5050   47.6740   90.5330 O.3   182  THR182     -0.2211
     48  CG2       48.8800   46.5380   91.8570 C.3   182  THR182      0.0375
     49  N         53.5180   48.2350   85.3220 N.3   249  ASN249     -0.1240
     50  CA        53.0480   49.5070   85.8290 C.3   249  ASN249      0.1653
     51  C         54.2540   50.2330   86.3900 C.2   249  ASN249      0.2266
     52  O         55.1020   49.6140   87.0190 O.2   249  ASN249     -0.2867
     53  CB        52.0120   49.3270   86.9080 C.3   249  ASN249      0.1155
     54  CG        52.5430   48.4860   88.0800 C.2   249  ASN249      0.2627
     55  OD1       52.5070   47.2480   88.0450 O.2   249  ASN249     -0.2716
     56  ND2       53.0450   49.1520   89.1190 N.am  249  ASN249     -0.0877
     57  N         49.9800   56.0220   85.4590 N.3   321  TYR321     -0.1241
     58  CA        48.8850   56.7430   86.0950 C.3   321  TYR321      0.1605
     59  C         49.3860   57.9920   86.7700 C.2   321  TYR321      0.2264
     60  O         48.7380   59.0310   86.7090 O.2   321  TYR321     -0.2867
     61  CB        48.2120   55.8290   87.1560 C.3   321  TYR321      0.0534
     62  CG        47.4790   54.7270   86.4680 C.ar  321  TYR321     -0.0201
     63  CD1       48.0790   53.4970   86.2610 C.ar  321  TYR321     -0.0009
     64  CD2       46.1820   54.9290   85.9850 C.ar  321  TYR321     -0.0009
     65  CE1       47.4020   52.4710   85.5830 C.ar  321  TYR321      0.0417
     66  CE2       45.5100   53.9170   85.2940 C.ar  321  TYR321      0.0417
     67  CZ        46.1130   52.6950   85.1230 C.ar  321  TYR321      0.1957
     68  OH        45.4430   51.7000   84.4360 O.3   321  TYR321     -0.2866
     69  N         44.9600   58.2630   95.0520 N.3   366  TRP366     -0.1241
     70  CA        46.3910   58.1180   94.7150 C.3   366  TRP366      0.1605
     71  C         46.7910   58.6760   93.3370 C.2   366  TRP366      0.2264
     72  O         47.9800   58.8910   93.0650 O.2   366  TRP366     -0.2867
     73  CB        46.8020   56.6300   94.8260 C.3   366  TRP366      0.0550
     74  CG        46.1350   55.7030   93.8350 C.ar  366  TRP366      0.0003
     75  CD1       44.8750   55.1130   93.9470 C.ar  366  TRP366      0.0946
     76  CD2       46.6940   55.2020   92.6110 C.ar  366  TRP366      0.0152
     77  NE1       44.6450   54.3130   92.8610 N.ar  366  TRP366     -0.2442
     78  CE2       45.7380   54.3470   92.0280 C.ar  366  TRP366      0.0810
     79  CE3       47.9180   55.4000   91.9390 C.ar  366  TRP366      0.0012
     80  CZ2       45.9600   53.6760   90.8150 C.ar  366  TRP366      0.0191
     81  CZ3       48.1290   54.7440   90.7160 C.ar  366  TRP366      0.0001
     82  CH2       47.1480   53.9000   90.1650 C.ar  366  TRP366      0.0015
     83  N         48.1930   51.1970   79.4680 N.3   394  GLU394     -0.1245
     84  CA        47.1420   51.7580   80.3250 C.3   394  GLU394      0.1567
     85  C         47.4800   53.1940   80.6770 C.2   394  GLU394      0.2260
     86  O         48.6470   53.5240   80.9270 O.2   394  GLU394     -0.2867
     87  CB        46.9960   50.9810   81.6320 C.3   394  GLU394      0.0388
     88  CG        46.5690   49.5520   81.4290 C.3   394  GLU394      0.1160
     89  CD        46.4510   48.7520   82.6930 C.2   394  GLU394      0.3649
     90  OE1       46.3230   47.5170   82.5690 O.co2 394  GLU394     -0.2457
     91  OE2       46.4640   49.3240   83.7970 O.co2 394  GLU394     -0.2457
     92  N         42.8200   53.3840   79.9950 N.3   443  TRP443     -0.1241
     93  CA        42.2020   52.5750   81.0420 C.3   443  TRP443      0.1605
     94  C         41.0540   53.3950   81.6290 C.2   443  TRP443      0.2264
     95  O         41.3010   54.4530   82.2180 O.2   443  TRP443     -0.2867
     96  CB        43.1800   52.2480   82.1890 C.3   443  TRP443      0.0550
     97  CG        42.4530   51.3800   83.1640 C.ar  443  TRP443      0.0003
     98  CD1       41.7070   51.7850   84.2400 C.ar  443  TRP443      0.0946
     99  CD2       42.3030   49.9570   83.0840 C.ar  443  TRP443      0.0152
    100  NE1       41.1400   50.6920   84.8560 N.ar  443  TRP443     -0.2442
    101  CE2       41.4890   49.5570   84.1650 C.ar  443  TRP443      0.0810
    102  CE3       42.7870   48.9730   82.2050 C.ar  443  TRP443      0.0012
    103  CZ2       41.1360   48.2080   84.3960 C.ar  443  TRP443      0.0191
    104  CZ3       42.4420   47.6420   82.4260 C.ar  443  TRP443      0.0001
    105  CH2       41.6240   47.2700   83.5290 C.ar  443  TRP443      0.0015
    106  N         36.8030   48.1560   90.5000 N.3   450  GLU450     -0.1231
    107  CA        38.1290   48.6820   90.7930 C.3   450  GLU450      0.1699
    108  C         38.6550   48.0660   92.0980 C.2   450  GLU450      0.2592
    109  O         38.9250   48.7410   93.0920 O.2   450  GLU450     -0.2718
    110  CB        38.0730   50.2140   90.8100 C.3   450  GLU450      0.0402
    111  CG        39.3830   50.9100   91.2060 C.3   450  GLU450      0.1161
    112  CD        40.5540   50.6200   90.2480 C.2   450  GLU450      0.3649
    113  OE1       40.3510   50.2210   89.0800 O.co2 450  GLU450     -0.2457
    114  OE2       41.7050   50.8470   90.6860 O.co2 450  GLU450     -0.2457
    115  N         38.7640   46.7480   92.0850 N.am  451  TRP451     -0.1976
    116  CA        39.3810   46.0160   93.1820 C.3   451  TRP451      0.1640
    117  C         38.8830   46.4440   94.5580 C.2   451  TRP451      0.2290
    118  O         37.6600   46.5030   94.8090 O.2   451  TRP451     -0.2864
    119  CB        40.9410   46.1390   93.0350 C.3   451  TRP451      0.0576
    120  CG        41.4130   45.8100   91.5830 C.ar  451  TRP451      0.0006
    121  CD1       42.0590   46.6580   90.7090 C.ar  451  TRP451      0.0946
    122  CD2       41.3110   44.5510   90.8980 C.ar  451  TRP451      0.0152
    123  NE1       42.3350   46.0110   89.5290 N.ar  451  TRP451     -0.2442
    124  CE2       41.8890   44.7130   89.6230 C.ar  451  TRP451      0.0810
    125  CE3       40.7490   43.3020   91.2250 C.ar  451  TRP451      0.0012
    126  CZ2       41.9340   43.6850   88.6830 C.ar  451  TRP451      0.0191
    127  CZ3       40.8080   42.2780   90.2940 C.ar  451  TRP451      0.0001
    128  CH2       41.3960   42.4690   89.0400 C.ar  451  TRP451      0.0015
    129  N         36.5220   54.4450   86.1050 N.3   459  PHE459     -0.1241
    130  CA        37.6950   54.7570   85.2500 C.3   459  PHE459      0.1605
    131  C         37.3220   54.7060   83.7730 C.2   459  PHE459      0.2264
    132  O         38.1670   54.9070   82.9050 O.2   459  PHE459     -0.2867
    133  CB        38.8120   53.7030   85.4610 C.3   459  PHE459      0.0534
    134  CG        39.7200   53.9980   86.6040 C.ar  459  PHE459     -0.0203
    135  CD1       39.3290   53.7330   87.9120 C.ar  459  PHE459     -0.0042
    136  CD2       41.0140   54.4630   86.3650 C.ar  459  PHE459     -0.0042
    137  CE1       40.1760   53.9920   88.9900 C.ar  459  PHE459     -0.0003
    138  CE2       41.8680   54.7230   87.3970 C.ar  459  PHE459     -0.0003
    139  CZ        41.4770   54.4790   88.7320 C.ar  459  PHE459     -0.0000
@<TRIPOS>BOND
     1    83    84    1
     2    92    93    1
     3    84    85    1
     4    84    87    1
     5    85    86    2
     6    93    94    1
     7    93    96    1
     8    88    87    1
     9    88    89    1
    10    94    95    2
    11    96    97    1
    12   102   104   ar
    13   102    99   ar
    14   104   105   ar
    15    90    89   ar
    16    89    91   ar
    17   132   131    2
    18    99    97   ar
    19    99   101   ar
    20    97    98   ar
    21   105   103   ar
    22   131   130    1
    23   101   103   ar
    24   101   100   ar
    25    16    18   ar
    26    16    15   ar
    27    98   100   ar
    28    68    67    1
    29    14    15    1
    30    14    11    1
    31    10    11    1
    32    18    19   ar
    33    15    17   ar
    34    67    66   ar
    35    67    65   ar
    36    34    35    1
    37   130   133    1
    38   130   129    1
    39    66    64   ar
    40    49    50    1
    41    11    12    1
    42    57    58    1
    43   133   134    1
    44     3     4    2
    45     3     2    1
    46    65    63   ar
    47    40    39   ar
    48    50    51    1
    49    50    53    1
    50    64    62   ar
    51     8     7    2
    52    58    59    1
    53    58    61    1
    54    41    39   ar
    55     5     2    1
    56     5     6    1
    57    19    17   ar
    58     1     2    1
    59    39    38    1
    60    63    62   ar
    61   136   134   ar
    62   136   138   ar
    63    51    52    2
    64    62    61    1
    65    35    38    1
    66    35    36    1
    67   134   135   ar
    68    60    59    2
    69    12    13    2
    70    12    20   am
    71     7     6    1
    72     7     9   am
    73    53    54    1
    74   138   139   ar
    75    36    37    2
    76    20    21    1
    77   135   137   ar
    78    55    54    2
    79    54    56   am
    80    28    26   ar
    81    28    29   ar
    82    26    25   ar
    83   126   128   ar
    84   126   124   ar
    85   139   137   ar
    86    21    22    1
    87    21    24    1
    88    29    31   ar
    89    29    27   ar
    90   128   127   ar
    91   113   112   ar
    92    31    33   ar
    93    25    27   ar
    94    25    24    1
    95    22    23    2
    96   123   124   ar
    97   123   121   ar
    98    27    30   ar
    99   124   122   ar
   100    33    32   ar
   101    82    81   ar
   102    82    80   ar
   103   112   114   ar
   104   112   111    1
   105   127   125   ar
   106    30    32   ar
   107   106   107    1
   108    47    46    1
   109   121   120   ar
   110    81    79   ar
   111   107   110    1
   112   107   108    1
   113   110   111    1
   114    80    78   ar
   115    42    43    1
   116   122   125   ar
   117   122   120   ar
   118    46    43    1
   119    46    48    1
   120   120   119    1
   121    43    44    1
   122    79    76   ar
   123    78    76   ar
   124    78    77   ar
   125   115   108   am
   126   115   116    1
   127   108   109    2
   128    44    45    2
   129    76    74   ar
   130    77    75   ar
   131   119   116    1
   132    72    71    2
   133   116   117    1
   134    71    70    1
   135    74    75   ar
   136    74    73    1
   137   117   118    2
   138    70    73    1
   139    70    69    1
