@<TRIPOS>MOLECULE
tmp/1v03A01.pdb
 117 116 0 0 0
SMALL
GASTEIGER

@<TRIPOS>ATOM
      1  N         45.8410   38.7290   87.5150 N.3   134  TRP134     -0.1241
      2  CA        45.7510   38.6270   88.9680 C.3   134  TRP134      0.1605
      3  C         44.6920   37.6050   89.4530 C.2   134  TRP134      0.2264
      4  O         44.4910   37.4280   90.6570 O.2   134  TRP134     -0.2867
      5  CB        45.4450   39.9610   89.6270 C.3   134  TRP134      0.0550
      6  CG        46.2630   41.1970   89.2140 C.ar  134  TRP134      0.0003
      7  CD1       47.3850   41.2570   88.3940 C.ar  134  TRP134      0.0946
      8  CD2       45.9860   42.5350   89.6030 C.ar  134  TRP134      0.0152
      9  NE1       47.7940   42.5650   88.2610 N.ar  134  TRP134     -0.2442
     10  CE2       46.9560   43.3720   88.9890 C.ar  134  TRP134      0.0810
     11  CE3       45.0080   43.1260   90.4050 C.ar  134  TRP134      0.0012
     12  CZ2       46.9730   44.7560   89.1740 C.ar  134  TRP134      0.0191
     13  CZ3       45.0110   44.4950   90.5700 C.ar  134  TRP134      0.0001
     14  CH2       45.9910   45.3020   89.9560 C.ar  134  TRP134      0.0015
     15  N         50.9850   44.5120   85.1520 N.3   179  ASP179     -0.1239
     16  CA        51.3340   45.0490   86.4810 C.3   179  ASP179      0.1674
     17  C         51.8690   44.0120   87.4640 C.2   179  ASP179      0.2266
     18  O         51.3850   43.9190   88.5990 O.2   179  ASP179     -0.2867
     19  CB        50.1690   45.7790   87.1980 C.3   179  ASP179      0.1410
     20  CG        49.2710   46.5590   86.2570 C.2   179  ASP179      0.3668
     21  OD1       49.7260   47.5390   85.6180 O.co2 179  ASP179     -0.2456
     22  OD2       48.0580   46.2560   86.1180 O.co2 179  ASP179     -0.2456
     23  N         52.4300   45.5190   90.8600 N.3   182  THR182     -0.1218
     24  CA        51.2710   45.7430   91.7450 C.3   182  THR182      0.1862
     25  C         50.8580   44.3780   92.2820 C.2   182  THR182      0.2287
     26  O         50.5960   44.2010   93.4520 O.2   182  THR182     -0.2866
     27  CB        50.1250   46.3340   90.9330 C.3   182  THR182      0.1770
     28  OG1       50.5050   47.6740   90.5330 O.3   182  THR182     -0.2211
     29  CG2       48.8800   46.5380   91.8570 C.3   182  THR182      0.0375
     30  N         51.2690   44.3980   96.2970 N.3   186  VAL186     -0.1245
     31  CA        49.9850   44.8460   96.8640 C.3   186  VAL186      0.1561
     32  C         49.1370   43.6010   97.2230 C.2   186  VAL186      0.2260
     33  O         48.3460   43.6430   98.1560 O.2   186  VAL186     -0.2867
     34  CB        49.2740   45.8550   95.8880 C.3   186  VAL186      0.0252
     35  CG1       47.9580   46.3740   96.4360 C.3   186  VAL186      0.0019
     36  CG2       50.2170   47.0880   95.6250 C.3   186  VAL186      0.0019
     37  N         46.3960   44.4560  100.2370 N.3   192  VAL192     -0.1231
     38  CA        45.1480   45.1080   99.8170 C.3   192  VAL192      0.1692
     39  C         44.3650   44.2950   98.7830 C.2   192  VAL192      0.2591
     40  O         43.1170   44.2810   98.7780 O.2   192  VAL192     -0.2718
     41  CB        45.4120   46.5340   99.3010 C.3   192  VAL192      0.0266
     42  CG1       44.1270   47.1350   98.6240 C.3   192  VAL192      0.0020
     43  CG2       45.8820   47.3900  100.4460 C.3   192  VAL192      0.0020
     44  N         45.0920   43.5960   97.9160 N.am  193  LEU193     -0.1980
     45  CA        44.4900   42.8930   96.7910 C.3   193  LEU193      0.1596
     46  C         44.5180   41.3870   97.0380 C.2   193  LEU193      0.2287
     47  O         45.4310   40.9100   97.7180 O.2   193  LEU193     -0.2864
     48  CB        45.2830   43.2020   95.5230 C.3   193  LEU193      0.0297
     49  CG        45.2530   44.6730   95.0370 C.3   193  LEU193      0.0022
     50  CD1       46.2040   44.8310   93.8310 C.3   193  LEU193      0.0001
     51  CD2       43.8350   45.1200   94.6390 C.3   193  LEU193      0.0001
     52  N         55.2890   53.8570   88.3310 N.3   251  PHE251     -0.1241
     53  CA        55.1010   55.1620   88.8960 C.3   251  PHE251      0.1605
     54  C         56.2420   56.0520   88.4610 C.2   251  PHE251      0.2264
     55  O         57.3940   55.6370   88.5690 O.2   251  PHE251     -0.2867
     56  CB        55.1560   55.0250   90.4160 C.3   251  PHE251      0.0534
     57  CG        54.0180   54.2100   90.9910 C.ar  251  PHE251     -0.0203
     58  CD1       54.1400   52.8270   91.1810 C.ar  251  PHE251     -0.0042
     59  CD2       52.8160   54.8360   91.3030 C.ar  251  PHE251     -0.0042
     60  CE1       53.0740   52.0770   91.6830 C.ar  251  PHE251     -0.0003
     61  CE2       51.7370   54.1150   91.8070 C.ar  251  PHE251     -0.0003
     62  CZ        51.8630   52.7230   92.0030 C.ar  251  PHE251     -0.0000
     63  N         49.9800   56.0220   85.4590 N.3   321  TYR321     -0.1241
     64  CA        48.8850   56.7430   86.0950 C.3   321  TYR321      0.1605
     65  C         49.3860   57.9920   86.7700 C.2   321  TYR321      0.2264
     66  O         48.7380   59.0310   86.7090 O.2   321  TYR321     -0.2867
     67  CB        48.2120   55.8290   87.1560 C.3   321  TYR321      0.0534
     68  CG        47.4790   54.7270   86.4680 C.ar  321  TYR321     -0.0201
     69  CD1       48.0790   53.4970   86.2610 C.ar  321  TYR321     -0.0009
     70  CD2       46.1820   54.9290   85.9850 C.ar  321  TYR321     -0.0009
     71  CE1       47.4020   52.4710   85.5830 C.ar  321  TYR321      0.0417
     72  CE2       45.5100   53.9170   85.2940 C.ar  321  TYR321      0.0417
     73  CZ        46.1130   52.6950   85.1230 C.ar  321  TYR321      0.1957
     74  OH        45.4430   51.7000   84.4360 O.3   321  TYR321     -0.2866
     75  N         44.9600   58.2630   95.0520 N.3   366  TRP366     -0.1241
     76  CA        46.3910   58.1180   94.7150 C.3   366  TRP366      0.1605
     77  C         46.7910   58.6760   93.3370 C.2   366  TRP366      0.2264
     78  O         47.9800   58.8910   93.0650 O.2   366  TRP366     -0.2867
     79  CB        46.8020   56.6300   94.8260 C.3   366  TRP366      0.0550
     80  CG        46.1350   55.7030   93.8350 C.ar  366  TRP366      0.0003
     81  CD1       44.8750   55.1130   93.9470 C.ar  366  TRP366      0.0946
     82  CD2       46.6940   55.2020   92.6110 C.ar  366  TRP366      0.0152
     83  NE1       44.6450   54.3130   92.8610 N.ar  366  TRP366     -0.2442
     84  CE2       45.7380   54.3470   92.0280 C.ar  366  TRP366      0.0810
     85  CE3       47.9180   55.4000   91.9390 C.ar  366  TRP366      0.0012
     86  CZ2       45.9600   53.6760   90.8150 C.ar  366  TRP366      0.0191
     87  CZ3       48.1290   54.7440   90.7160 C.ar  366  TRP366      0.0001
     88  CH2       47.1480   53.9000   90.1650 C.ar  366  TRP366      0.0015
     89  N         36.8030   48.1560   90.5000 N.3   450  GLU450     -0.1231
     90  CA        38.1290   48.6820   90.7930 C.3   450  GLU450      0.1699
     91  C         38.6550   48.0660   92.0980 C.2   450  GLU450      0.2592
     92  O         38.9250   48.7410   93.0920 O.2   450  GLU450     -0.2718
     93  CB        38.0730   50.2140   90.8100 C.3   450  GLU450      0.0402
     94  CG        39.3830   50.9100   91.2060 C.3   450  GLU450      0.1161
     95  CD        40.5540   50.6200   90.2480 C.2   450  GLU450      0.3649
     96  OE1       40.3510   50.2210   89.0800 O.co2 450  GLU450     -0.2457
     97  OE2       41.7050   50.8470   90.6860 O.co2 450  GLU450     -0.2457
     98  N         38.7640   46.7480   92.0850 N.am  451  TRP451     -0.1962
     99  CA        39.3810   46.0160   93.1820 C.3   451  TRP451      0.1771
    100  C         38.8830   46.4440   94.5580 C.2   451  TRP451      0.2620
    101  O         37.6600   46.5030   94.8090 O.2   451  TRP451     -0.2715
    102  CB        40.9410   46.1390   93.0350 C.3   451  TRP451      0.0590
    103  CG        41.4130   45.8100   91.5830 C.ar  451  TRP451      0.0006
    104  CD1       42.0590   46.6580   90.7090 C.ar  451  TRP451      0.0946
    105  CD2       41.3110   44.5510   90.8980 C.ar  451  TRP451      0.0152
    106  NE1       42.3350   46.0110   89.5290 N.ar  451  TRP451     -0.2442
    107  CE2       41.8890   44.7130   89.6230 C.ar  451  TRP451      0.0810
    108  CE3       40.7490   43.3020   91.2250 C.ar  451  TRP451      0.0012
    109  CZ2       41.9340   43.6850   88.6830 C.ar  451  TRP451      0.0191
    110  CZ3       40.8080   42.2780   90.2940 C.ar  451  TRP451      0.0001
    111  CH2       41.3960   42.4690   89.0400 C.ar  451  TRP451      0.0015
    112  N         39.7970   46.7240   95.4730 N.am  452  SER452     -0.1950
    113  CA        39.3880   46.9960   96.8290 C.3   452  SER452      0.1924
    114  C         38.5330   48.2540   96.9300 C.2   452  SER452      0.2314
    115  O         37.9620   48.5260   98.0000 O.2   452  SER452     -0.2863
    116  CB        40.5840   47.0720   97.7960 C.3   452  SER452      0.2116
    117  OG        41.2300   48.3390   97.7420 O.3   452  SER452     -0.2180
@<TRIPOS>BOND
     1    74    73    1
     2    73    72   ar
     3    73    71   ar
     4    15    16    1
     5    72    70   ar
     6    63    64    1
     7    71    69   ar
     8    21    20   ar
     9    70    68   ar
    10    64    65    1
    11    64    67    1
    12    22    20   ar
    13    20    19    1
    14    69    68   ar
    15    68    67    1
    16    16    19    1
    17    16    17    1
    18    66    65    2
    19    17    18    2
    20     1     2    1
    21     9     7   ar
    22     9    10   ar
    23    52    53    1
    24     7     6   ar
    25    54    55    2
    26    54    53    1
    27   109   111   ar
    28   109   107   ar
    29    53    56    1
    30     2     3    1
    31     2     5    1
    32    10    12   ar
    33    10     8   ar
    34   111   110   ar
    35    96    95   ar
    36    12    14   ar
    37     6     8   ar
    38     6     5    1
    39     3     4    2
    40   106   107   ar
    41   106   104   ar
    42     8    11   ar
    43   107   105   ar
    44    14    13   ar
    45    88    87   ar
    46    88    86   ar
    47    95    97   ar
    48    95    94    1
    49   110   108   ar
    50    11    13   ar
    51    56    57    1
    52    89    90    1
    53    28    27    1
    54   104   103   ar
    55    87    85   ar
    56    90    93    1
    57    90    91    1
    58    93    94    1
    59    86    84   ar
    60    23    24    1
    61   105   108   ar
    62   105   103   ar
    63    27    24    1
    64    27    29    1
    65    57    58   ar
    66    57    59   ar
    67    58    60   ar
    68    59    61   ar
    69   103   102    1
    70    60    62   ar
    71    24    25    1
    72    61    62   ar
    73    85    82   ar
    74    84    82   ar
    75    84    83   ar
    76    98    91   am
    77    98    99    1
    78    91    92    2
    79    25    26    2
    80    82    80   ar
    81    83    81   ar
    82   102    99    1
    83    78    77    2
    84    99   100    1
    85    77    76    1
    86    50    49    1
    87    80    81   ar
    88    80    79    1
    89   100   101    2
    90   100   112   am
    91    51    49    1
    92    76    79    1
    93    76    75    1
    94    49    48    1
    95   112   113    1
    96    48    45    1
    97    36    34    1
    98    34    35    1
    99    34    31    1
   100    30    31    1
   101    45    46    1
   102    45    44    1
   103   113   114    1
   104   113   116    1
   105    31    32    1
   106   114   115    2
   107    46    47    2
   108    32    33    2
   109   117   116    1
   110    44    39   am
   111    42    41    1
   112    40    39    2
   113    39    38    1
   114    41    38    1
   115    41    43    1
   116    38    37    1
