@<TRIPOS>MOLECULE
tmp/1v07A00.pdb
 208 199 0 0 0
SMALL
GASTEIGER

@<TRIPOS>ATOM
      1  N         35.9370   41.0260    8.2280 N.3    11  PHE11      -0.1227
      2  CA        35.9260   39.6950    8.8230 C.3    11  PHE11       0.1736
      3  C         35.9110   38.5870    7.7450 C.2    11  PHE11       0.2595
      4  O         36.7070   37.6410    7.7710 O.2    11  PHE11      -0.2718
      5  CB        34.7050   39.5660    9.7440 C.3    11  PHE11       0.0547
      6  CG        34.3460   38.1450   10.0610 C.ar   11  PHE11      -0.0202
      7  CD1       35.1800   37.3520   10.8720 C.ar   11  PHE11      -0.0042
      8  CD2       33.1700   37.6000    9.5680 C.ar   11  PHE11      -0.0042
      9  CE1       34.8280   36.0150   11.1570 C.ar   11  PHE11      -0.0003
     10  CE2       32.8410   36.2790    9.8300 C.ar   11  PHE11      -0.0003
     11  CZ        33.6600   35.4970   10.6250 C.ar   11  PHE11      -0.0000
     12  N         35.0290   38.7040    6.7680 N.am   12  TYR12      -0.1976
     13  CA        34.9240   37.6600    5.7590 C.3    12  TYR12       0.1639
     14  C         36.1810   37.7160    4.8780 C.2    12  TYR12       0.2290
     15  O         36.6410   36.6730    4.4250 O.2    12  TYR12      -0.2864
     16  CB        33.6200   37.8250    4.9500 C.3    12  TYR12       0.0560
     17  CG        32.4200   37.1320    5.5960 C.ar   12  TYR12      -0.0198
     18  CD1       32.4680   35.7670    5.8960 C.ar   12  TYR12      -0.0009
     19  CD2       31.2420   37.8300    5.9280 C.ar   12  TYR12      -0.0009
     20  CE1       31.3770   35.1000    6.5150 C.ar   12  TYR12       0.0417
     21  CE2       30.1330   37.1550    6.5030 C.ar   12  TYR12       0.0417
     22  CZ        30.2190   35.7970    6.8090 C.ar   12  TYR12       0.1957
     23  OH        29.1780   35.0710    7.3940 O.3    12  TYR12      -0.2866
     24  N         38.6670   35.8400    6.9590 N.3    15  LEU15      -0.1245
     25  CA        38.2890   34.4340    7.0880 C.3    15  LEU15       0.1561
     26  C         38.5720   33.5870    5.8450 C.2    15  LEU15       0.2260
     27  O         39.1480   32.4750    5.9300 O.2    15  LEU15      -0.2867
     28  CB        36.8080   34.3330    7.4500 C.3    15  LEU15       0.0270
     29  CG        36.3330   32.9010    7.7550 C.3    15  LEU15       0.0019
     30  CD1       36.8830   32.4610    9.1330 C.3    15  LEU15       0.0001
     31  CD2       34.8090   32.9140    7.8060 C.3    15  LEU15       0.0001
     32  N         36.2930   27.5030    3.4010 N.3    22  TYR22      -0.1241
     33  CA        35.0700   27.7210    4.2070 C.3    22  TYR22       0.1605
     34  C         34.0200   28.3690    3.2780 C.2    22  TYR22       0.2264
     35  O         32.8090   28.2220    3.4790 O.2    22  TYR22      -0.2867
     36  CB        35.3260   28.6740    5.3810 C.3    22  TYR22       0.0534
     37  CG        36.1100   28.1180    6.5270 C.ar   22  TYR22      -0.0201
     38  CD1       36.5480   26.7930    6.5470 C.ar   22  TYR22      -0.0009
     39  CD2       36.4420   28.9240    7.5960 C.ar   22  TYR22      -0.0009
     40  CE1       37.2880   26.3120    7.6380 C.ar   22  TYR22       0.0417
     41  CE2       37.1910   28.4570    8.6660 C.ar   22  TYR22       0.0417
     42  CZ        37.6050   27.1490    8.6720 C.ar   22  TYR22       0.1957
     43  OH        38.3450   26.6790    9.7290 O.3    22  TYR22      -0.2866
     44  N         30.8870   26.5320    1.5980 N.3    25  LYS25      -0.1231
     45  CA        29.6320   26.2330    2.3160 C.3    25  LYS25       0.1693
     46  C         28.5480   27.3070    2.1380 C.2    25  LYS25       0.2592
     47  O         27.4010   27.1210    2.5860 O.2    25  LYS25      -0.2718
     48  CB        29.8880   25.9970    3.7960 C.3    25  LYS25       0.0285
     49  CG        30.7610   24.7530    4.0310 C.3    25  LYS25       0.0035
     50  CD        30.7720   24.3170    5.4900 C.3    25  LYS25       0.0206
     51  CE        31.1940   22.8510    5.5650 C.3    25  LYS25       0.1093
     52  NZ        31.3840   22.3720    6.9730 N.3    25  LYS25      -0.1314
     53  N         28.8680   28.3860    1.4340 N.am   26  PHE26      -0.1962
     54  CA        27.9290   29.4970    1.2750 C.3    26  PHE26       0.1771
     55  C         27.3770   29.6120   -0.1530 C.2    26  PHE26       0.2620
     56  O         27.8850   28.9940   -1.1040 O.2    26  PHE26      -0.2715
     57  CB        28.6080   30.8370    1.6420 C.3    26  PHE26       0.0574
     58  CG        29.0140   30.9350    3.0860 C.ar   26  PHE26      -0.0200
     59  CD1       30.2620   30.4710    3.5160 C.ar   26  PHE26      -0.0042
     60  CD2       28.1570   31.5070    4.0260 C.ar   26  PHE26      -0.0042
     61  CE1       30.6490   30.5670    4.8490 C.ar   26  PHE26      -0.0003
     62  CE2       28.5490   31.6300    5.3590 C.ar   26  PHE26      -0.0003
     63  CZ        29.7840   31.1430    5.7720 C.ar   26  PHE26      -0.0000
     64  N         26.3220   30.4090   -0.2860 N.am   27  GLY27      -0.1954
     65  CA        25.6880   30.6130   -1.5740 C.3    27  GLY27       0.1869
     66  C         26.5410   31.4350   -2.5300 C.2    27  GLY27       0.2309
     67  O         26.2470   31.4860   -3.7130 O.2    27  GLY27      -0.2863
     68  N         23.9110   37.3030    3.5870 N.3    45  GLN45      -0.1245
     69  CA        24.5990   36.6260    4.6800 C.3    45  GLN45       0.1566
     70  C         25.3170   37.6360    5.5820 C.2    45  GLN45       0.2260
     71  O         25.2260   37.5690    6.7870 O.2    45  GLN45      -0.2867
     72  CB        25.6230   35.6680    4.0750 C.3    45  GLN45       0.0367
     73  CG        26.5350   34.9780    5.1070 C.3    45  GLN45       0.0905
     74  CD        25.7690   34.1940    6.1590 C.2    45  GLN45       0.2608
     75  OE1       24.6430   33.7320    5.9130 O.2    45  GLN45      -0.2717
     76  NE2       26.3820   34.0170    7.3220 N.am   45  GLN45      -0.0878
     77  N         22.9510   39.2110    7.9510 N.3    48  LYS48      -0.1231
     78  CA        22.5970   38.3540    9.0830 C.3    48  LYS48       0.1693
     79  C         23.6390   38.3930   10.1790 C.2    48  LYS48       0.2591
     80  O         23.3340   38.3390   11.3580 O.2    48  LYS48      -0.2718
     81  CB        22.4050   36.8820    8.6510 C.3    48  LYS48       0.0285
     82  CG        21.1650   36.6960    7.7880 C.3    48  LYS48       0.0035
     83  CD        21.0130   35.2290    7.3780 C.3    48  LYS48       0.0206
     84  CE        19.6850   35.0010    6.6400 C.3    48  LYS48       0.1093
     85  NZ        19.2090   33.6700    6.5300 N.3    48  LYS48      -0.1314
     86  N         24.9010   38.3980    9.7620 N.am   49  VAL49      -0.1980
     87  CA        25.9890   38.4390   10.7300 C.3    49  VAL49       0.1595
     88  C         25.9560   39.7760   11.4540 C.2    49  VAL49       0.2287
     89  O         26.0880   39.8070   12.6680 O.2    49  VAL49      -0.2864
     90  CB        27.3530   38.2000   10.0590 C.3    49  VAL49       0.0276
     91  CG1       28.4640   38.2130   11.1450 C.3    49  VAL49       0.0022
     92  CG2       27.2700   36.8000    9.4540 C.3    49  VAL49       0.0022
     93  N         23.3390   39.6130   13.9940 N.3    52  TYR52      -0.1227
     94  CA        23.6880   38.8050   15.1340 C.3    52  TYR52       0.1736
     95  C         24.5790   39.5980   16.1000 C.2    52  TYR52       0.2595
     96  O         24.3900   39.5470   17.3240 O.2    52  TYR52      -0.2718
     97  CB        24.3800   37.4850   14.6890 C.3    52  TYR52       0.0548
     98  CG        24.5950   36.5970   15.9010 C.ar   52  TYR52      -0.0200
     99  CD1       23.5540   35.8020   16.4140 C.ar   52  TYR52      -0.0009
    100  CD2       25.8030   36.6260   16.6020 C.ar   52  TYR52      -0.0009
    101  CE1       23.7420   35.0300   17.5550 C.ar   52  TYR52       0.0417
    102  CE2       26.0140   35.8760   17.7270 C.ar   52  TYR52       0.0417
    103  CZ        24.9800   35.0770   18.2220 C.ar   52  TYR52       0.1957
    104  OH        25.1800   34.3560   19.3690 O.3    52  TYR52      -0.2866
    105  N         25.5570   40.2990   15.5380 N.am   53  ILE53      -0.1980
    106  CA        26.4100   41.1420   16.3960 C.3    53  ILE53       0.1595
    107  C         25.5720   42.1780   17.1590 C.2    53  ILE53       0.2287
    108  O         25.7640   42.3660   18.3410 O.2    53  ILE53      -0.2864
    109  CB        27.4690   41.7960   15.5360 C.3    53  ILE53       0.0276
    110  CG1       28.4890   40.7470   15.0710 C.3    53  ILE53       0.0022
    111  CG2       28.1440   42.9470   16.2930 C.3    53  ILE53       0.0022
    112  CD1       29.4360   41.2870   13.9200 C.3    53  ILE53       0.0001
    113  N         22.4760   29.5940   17.5010 N.3    66  LEU66      -0.1245
    114  CA        23.4430   29.8030   16.4340 C.3    66  LEU66       0.1561
    115  C         24.4160   28.6240   16.3350 C.2    66  LEU66       0.2260
    116  O         24.7180   28.1430   15.2400 O.2    66  LEU66      -0.2867
    117  CB        24.2140   31.1220   16.6370 C.3    66  LEU66       0.0270
    118  CG        25.0120   31.5100   15.3770 C.3    66  LEU66       0.0019
    119  CD1       24.0820   31.8540   14.1810 C.3    66  LEU66       0.0001
    120  CD2       25.8810   32.7430   15.6980 C.3    66  LEU66       0.0001
    121  N         22.7270   25.6660   14.7030 N.3    69  ARG69      -0.1231
    122  CA        22.6560   25.8340   13.2650 C.3    69  ARG69       0.1694
    123  C         23.9780   25.6340   12.5560 C.2    69  ARG69       0.2592
    124  O         23.9900   25.1140   11.4440 O.2    69  ARG69      -0.2718
    125  CB        22.0930   27.2080   12.9810 C.3    69  ARG69       0.0321
    126  CG        20.5780   27.1520   13.2060 C.3    69  ARG69       0.0489
    127  CD        19.9810   28.5550   13.1760 C.3    69  ARG69       0.2205
    128  NE        18.5380   28.5770   13.4300 N.pl3  69  ARG69      -0.0865
    129  CZ        17.9600   28.3340   14.6000 C.cat  69  ARG69       0.5346
    130  NH1       18.6840   27.9830   15.6590 N.pl3  69  ARG69       0.1354
    131  NH2       16.6300   28.4250   14.7060 N.pl3  69  ARG69       0.1354
    132  N         25.0820   26.0570   13.1930 N.am   70  HIS70      -0.1976
    133  CA        26.4090   25.7980   12.6080 C.3    70  HIS70       0.1656
    134  C         26.7850   24.3140   12.6320 C.2    70  HIS70       0.2291
    135  O         27.2890   23.7930   11.6330 O.2    70  HIS70      -0.2864
    136  CB        27.4960   26.6940   13.2220 C.3    70  HIS70       0.0771
    137  CG        27.4580   28.0940   12.7000 C.ar   70  HIS70       0.0820
    138  ND1       26.5510   29.0290   13.1720 N.ar   70  HIS70      -0.2267
    139  CD2       28.1190   28.6870   11.6730 C.ar   70  HIS70       0.1154
    140  CE1       26.7130   30.1580   12.4990 C.ar   70  HIS70       0.1986
    141  NE2       27.6640   29.9790   11.5940 N.ar   70  HIS70      -0.2212
    142  N         25.5770   22.6030    9.7190 N.3    73  ARG73      -0.1245
    143  CA        26.3490   22.7630    8.4760 C.3    73  ARG73       0.1563
    144  C         27.7300   22.0950    8.5910 C.2    73  ARG73       0.2260
    145  O         28.6390   22.3650    7.7730 O.2    73  ARG73      -0.2867
    146  CB        26.5750   24.2640    8.1690 C.3    73  ARG73       0.0307
    147  CG        25.2690   25.0540    8.0430 C.3    73  ARG73       0.0489
    148  CD        24.4210   24.6080    6.8970 C.3    73  ARG73       0.2205
    149  NE        23.1960   25.4040    6.8060 N.pl3  73  ARG73      -0.0865
    150  CZ        22.7770   26.0100    5.7030 C.cat  73  ARG73       0.5346
    151  NH1       23.5060   25.9390    4.5860 N.pl3  73  ARG73       0.1354
    152  NH2       21.6360   26.6880    5.7280 N.pl3  73  ARG73       0.1354
    153  N         29.8890   22.6910   10.8510 N.3    75  VAL75      -0.1245
    154  CA        30.8260   23.7150   11.2820 C.3    75  VAL75       0.1561
    155  C         30.9820   23.6400   12.7810 C.2    75  VAL75       0.2260
    156  O         30.0080   23.7540   13.5320 O.2    75  VAL75      -0.2867
    157  CB        30.3520   25.1230   10.8860 C.3    75  VAL75       0.0252
    158  CG1       31.3530   26.1810   11.4380 C.3    75  VAL75       0.0019
    159  CG2       30.2080   25.1960    9.3540 C.3    75  VAL75       0.0019
    160  N         36.6280   25.6630   13.4960 N.3    79  GLU79      -0.1231
    161  CA        36.2570   26.7730   12.6120 C.3    79  GLU79       0.1699
    162  C         35.9460   28.0340   13.4250 C.2    79  GLU79       0.2592
    163  O         36.3900   29.1320   13.0520 O.2    79  GLU79      -0.2718
    164  CB        35.0410   26.3700   11.7590 C.3    79  GLU79       0.0402
    165  CG        35.3210   25.2710   10.7480 C.3    79  GLU79       0.1161
    166  CD        34.9440   23.8800   11.2540 C.2    79  GLU79       0.3649
    167  OE1       35.0400   23.5900   12.4700 O.co2  79  GLU79      -0.2457
    168  OE2       34.5200   23.0590   10.4220 O.co2  79  GLU79      -0.2457
    169  N         35.1980   27.9000   14.5310 N.am   80  PHE80      -0.1976
    170  CA        34.9020   29.0730   15.3400 C.3    80  PHE80       0.1639
    171  C         36.1190   29.7030   16.0090 C.2    80  PHE80       0.2290
    172  O         36.1640   30.9180   16.1930 O.2    80  PHE80      -0.2864
    173  CB        33.7370   28.8720   16.3280 C.3    80  PHE80       0.0560
    174  CG        32.4130   29.2210   15.7090 C.ar   80  PHE80      -0.0200
    175  CD1       31.8790   30.4830   15.8550 C.ar   80  PHE80      -0.0042
    176  CD2       31.7680   28.3080   14.8940 C.ar   80  PHE80      -0.0042
    177  CE1       30.6640   30.8300   15.2300 C.ar   80  PHE80      -0.0003
    178  CE2       30.5730   28.6430   14.2800 C.ar   80  PHE80      -0.0003
    179  CZ        30.0280   29.8990   14.4570 C.ar   80  PHE80      -0.0000
    180  N         37.5460   31.7250   13.2590 N.3    83  ALA83      -0.1245
    181  CA        36.7140   32.9130   13.0510 C.3    83  ALA83       0.1562
    182  C         36.9370   33.9490   14.1510 C.2    83  ALA83       0.2260
    183  O         36.9230   35.1650   13.9000 O.2    83  ALA83      -0.2867
    184  CB        35.2120   32.5290   12.9850 C.3    83  ALA83       0.0290
    185  N         37.8070   37.7000   13.3730 N.3    87  LEU87      -0.1245
    186  CA        36.9430   38.7900   13.8280 C.3    87  LEU87       0.1561
    187  C         37.6860   39.7800   14.7230 C.2    87  LEU87       0.2260
    188  O         37.4190   40.9670   14.6880 O.2    87  LEU87      -0.2867
    189  CB        35.7090   38.2130   14.5310 C.3    87  LEU87       0.0270
    190  CG        34.5740   39.1950   14.8710 C.3    87  LEU87       0.0019
    191  CD1       34.0300   39.8330   13.6070 C.3    87  LEU87       0.0001
    192  CD2       33.4340   38.3630   15.5180 C.3    87  LEU87       0.0001
    193  N         31.7400   35.3650   20.8530 N.3   103  ILE103     -0.1245
    194  CA        32.1290   34.1300   20.1750 C.3   103  ILE103      0.1561
    195  C         32.3820   33.0400   21.2070 C.2   103  ILE103      0.2260
    196  O         32.0360   31.8790   20.9990 O.2   103  ILE103     -0.2867
    197  CB        33.3770   34.3490   19.2960 C.3   103  ILE103      0.0252
    198  CG1       33.1530   35.5600   18.3790 C.3   103  ILE103      0.0019
    199  CG2       33.7600   33.0670   18.5400 C.3   103  ILE103      0.0019
    200  CD1       31.9630   35.4190   17.4270 C.3   103  ILE103      0.0001
    201  N         29.1400   31.3430   21.8830 N.3   106  ILE106     -0.1245
    202  CA        28.8490   30.3050   20.8880 C.3   106  ILE106      0.1561
    203  C         29.7320   29.0730   21.0760 C.2   106  ILE106      0.2260
    204  O         29.2790   27.9410   20.9940 O.2   106  ILE106     -0.2867
    205  CB        29.0290   30.8670   19.4620 C.3   106  ILE106      0.0252
    206  CG1       28.0960   32.0500   19.2450 C.3   106  ILE106      0.0019
    207  CG2       28.7690   29.7760   18.4310 C.3   106  ILE106      0.0019
    208  CD1       28.5470   32.9680   18.0650 C.3   106  ILE106      0.0001
@<TRIPOS>BOND
     1    67    66    2
     2    66    65    1
     3    65    64    1
     4    56    55    2
     5    64    55   am
     6    55    54    1
     7    54    53    1
     8    54    57    1
     9    53    46   am
    10    44    45    1
    11    57    58    1
    12    46    45    1
    13    46    47    2
    14    45    48    1
    15    58    59   ar
    16    58    60   ar
    17    34    35    2
    18    34    33    1
    19    32    33    1
    20    59    61   ar
    21    68    69    1
    22    48    49    1
    23    60    62   ar
    24    49    50    1
    25    72    69    1
    26    72    73    1
    27    33    36    1
    28    15    14    2
    29   151   150    1
    30    69    70    1
    31    61    63   ar
    32    14    13    1
    33    16    17    1
    34    16    13    1
    35    73    74    1
    36    62    63   ar
    37    36    37    1
    38    50    51    1
    39    51    52    1
    40    70    71    2
    41    17    18   ar
    42    17    19   ar
    43   150   152    1
    44   150   149    2
    45    13    12    1
    46    26    27    2
    47    26    25    1
    48    18    20   ar
    49    75    74    2
    50    19    21   ar
    51    74    76   am
    52    21    22   ar
    53    20    22   ar
    54    37    38   ar
    55    37    39   ar
    56    85    84    1
    57    38    40   ar
    58    84    83    1
    59    12     3   am
    60   149   148    1
    61    22    23    1
    62   148   147    1
    63    24    25    1
    64    25    28    1
    65    83    82    1
    66    28    29    1
    67    39    41   ar
    68    40    42   ar
    69     3     4    2
    70     3     2    1
    71    29    31    1
    72    29    30    1
    73   145   144    2
    74    82    81    1
    75    77    78    1
    76   147   146    1
    77   146   143    1
    78     1     2    1
    79   143   144    1
    80   143   142    1
    81    81    78    1
    82    41    42   ar
    83    42    43    1
    84     2     5    1
    85    78    79    1
    86   159   157    1
    87    92    90    1
    88     8    10   ar
    89     8     6   ar
    90     5     6    1
    91    86    79   am
    92    86    87    1
    93    10    11   ar
    94    90    87    1
    95    90    91    1
    96     6     7   ar
    97    79    80    2
    98   168   166   ar
    99    11     9   ar
   100    87    88    1
   101   165   166    1
   102   165   164    1
   103   153   154    1
   104     7     9   ar
   105   157   154    1
   106   157   158    1
   107   166   167   ar
   108   154   155    1
   109   124   123    2
   110    88    89    2
   111   141   139   ar
   112   141   140   ar
   113   135   134    2
   114   139   137   ar
   115   164   161    1
   116   140   138   ar
   117   123   132   am
   118   123   122    1
   119   133   134    1
   120   133   132    1
   121   133   136    1
   122   161   162    1
   123   161   160    1
   124   137   138   ar
   125   137   136    1
   126   155   156    2
   127   125   126    1
   128   125   122    1
   129   184   181    1
   130   181   180    1
   131   181   182    1
   132   163   162    2
   133   127   126    1
   134   127   128    1
   135   122   121    1
   136   185   186    1
   137   162   169   am
   138   128   129    2
   139   191   190    1
   140   186   189    1
   141   186   187    1
   142   183   182    2
   143   112   110    1
   144    93    94    1
   145   119   118    1
   146   178   179   ar
   147   178   176   ar
   148   179   177   ar
   149   189   190    1
   150   169   170    1
   151   129   131    1
   152   129   130    1
   153   188   187    2
   154    97    94    1
   155    97    98    1
   156   190   192    1
   157   176   174   ar
   158   110   109    1
   159    94    95    1
   160   177   175   ar
   161   116   115    2
   162   170   171    1
   163   170   173    1
   164   118   120    1
   165   118   117    1
   166   109   111    1
   167   109   106    1
   168   105    95   am
   169   105   106    1
   170   174   175   ar
   171   174   173    1
   172    98    99   ar
   173    98   100   ar
   174   171   172    2
   175    95    96    2
   176   115   114    1
   177   106   107    1
   178    99   101   ar
   179   114   117    1
   180   114   113    1
   181   100   102   ar
   182   107   108    2
   183   200   198    1
   184   101   103   ar
   185   102   103   ar
   186   208   206    1
   187   103   104    1
   188   198   197    1
   189   207   205    1
   190   199   197    1
   191   206   205    1
   192   197   194    1
   193   205   202    1
   194   194   193    1
   195   194   195    1
   196   202   203    1
   197   202   201    1
   198   204   203    2
   199   196   195    2
