@<TRIPOS>MOLECULE
tmp/1v08B01.pdb
 136 136 0 0 0
SMALL
GASTEIGER

@<TRIPOS>ATOM
      1  N        -17.6390   53.1600  -41.1490 N.3   132  TRP132     -0.1241
      2  CA       -16.9690   51.9580  -41.6900 C.3   132  TRP132      0.1605
      3  C        -17.0300   51.7520  -43.2060 C.2   132  TRP132      0.2264
      4  O        -16.4230   50.8190  -43.7300 O.2   132  TRP132     -0.2867
      5  CB       -17.4770   50.6800  -41.0150 C.3   132  TRP132      0.0550
      6  CG       -17.4350   50.6850  -39.5300 C.ar  132  TRP132      0.0003
      7  CD1      -16.8970   51.6420  -38.7040 C.ar  132  TRP132      0.0946
      8  CD2      -17.9560   49.6670  -38.6780 C.ar  132  TRP132      0.0152
      9  NE1      -17.0640   51.2720  -37.3910 N.ar  132  TRP132     -0.2442
     10  CE2      -17.7070   50.0590  -37.3490 C.ar  132  TRP132      0.0810
     11  CE3      -18.6190   48.4580  -38.9040 C.ar  132  TRP132      0.0012
     12  CZ2      -18.0970   49.2810  -36.2530 C.ar  132  TRP132      0.0191
     13  CZ3      -19.0020   47.6860  -37.8120 C.ar  132  TRP132      0.0001
     14  CH2      -18.7510   48.1080  -36.5110 C.ar  132  TRP132      0.0015
     15  N        -16.4950   53.7780  -33.5850 N.3   180  ASP180     -0.1239
     16  CA       -15.7710   52.5680  -33.2010 C.3   180  ASP180      0.1674
     17  C        -14.4740   52.3870  -33.9610 C.2   180  ASP180      0.2266
     18  O        -14.3390   51.4190  -34.6880 O.2   180  ASP180     -0.2867
     19  CB       -16.5960   51.3250  -33.5170 C.3   180  ASP180      0.1410
     20  CG       -17.8420   51.1830  -32.6840 C.2   180  ASP180      0.3668
     21  OD1      -18.1690   52.0330  -31.8170 O.co2 180  ASP180     -0.2456
     22  OD2      -18.5620   50.1780  -32.8580 O.co2 180  ASP180     -0.2456
     23  N        -11.8200   51.2890  -32.6650 N.3   182  GLN182     -0.1231
     24  CA       -11.2480   50.0310  -32.1660 C.3   182  GLN182      0.1698
     25  C        -11.8290   48.8080  -32.8540 C.2   182  GLN182      0.2592
     26  O        -11.0900   47.9470  -33.3100 O.2   182  GLN182     -0.2718
     27  CB       -11.4190   49.8890  -30.6560 C.3   182  GLN182      0.0381
     28  CG       -10.5480   48.7860  -30.0230 C.3   182  GLN182      0.0905
     29  CD       -11.1150   47.3820  -30.1510 C.2   182  GLN182      0.2608
     30  OE1      -10.3740   46.4540  -30.4170 O.2   182  GLN182     -0.2717
     31  NE2      -12.4180   47.2250  -29.9530 N.am  182  GLN182     -0.0878
     32  N        -13.1520   48.7120  -32.9090 N.am  183  THR183     -0.1953
     33  CA       -13.7770   47.5660  -33.5590 C.3   183  THR183      0.1897
     34  C        -13.4320   47.5170  -35.0470 C.2   183  THR183      0.2313
     35  O        -13.1150   46.4460  -35.5970 O.2   183  THR183     -0.2863
     36  CB       -15.3070   47.5930  -33.3700 C.3   183  THR183      0.1794
     37  OG1      -15.6190   47.4450  -31.9810 O.3   183  THR183     -0.2208
     38  CG2      -15.9500   46.3830  -34.0100 C.3   183  THR183      0.0378
     39  N        -11.3010   44.3470  -36.2810 N.3   187  PHE187     -0.1241
     40  CA       -12.1200   43.3590  -36.9770 C.3   187  PHE187      0.1605
     41  C        -11.8410   43.3510  -38.4700 C.2   187  PHE187      0.2264
     42  O        -11.9450   42.3110  -39.0950 O.2   187  PHE187     -0.2867
     43  CB       -13.6210   43.5900  -36.7350 C.3   187  PHE187      0.0534
     44  CG       -14.1310   43.0350  -35.4240 C.ar  187  PHE187     -0.0203
     45  CD1      -15.4640   42.6650  -35.2960 C.ar  187  PHE187     -0.0042
     46  CD2      -13.2940   42.8870  -34.3160 C.ar  187  PHE187     -0.0042
     47  CE1      -15.9520   42.1580  -34.0940 C.ar  187  PHE187     -0.0003
     48  CE2      -13.7850   42.3700  -33.1150 C.ar  187  PHE187     -0.0003
     49  CZ       -15.1150   42.0100  -33.0090 C.ar  187  PHE187     -0.0000
     50  N        -14.4950   41.6840  -40.7140 N.3   194  PHE194     -0.1241
     51  CA       -15.0690   42.8400  -41.3980 C.3   194  PHE194      0.1605
     52  C        -14.3270   43.0660  -42.7080 C.2   194  PHE194      0.2264
     53  O        -13.1800   42.6530  -42.8550 O.2   194  PHE194     -0.2867
     54  CB       -14.8850   44.1000  -40.5550 C.3   194  PHE194      0.0534
     55  CG       -15.8740   44.2720  -39.4340 C.ar  194  PHE194     -0.0203
     56  CD1      -16.8560   43.3300  -39.1450 C.ar  194  PHE194     -0.0042
     57  CD2      -15.8140   45.4240  -38.6630 C.ar  194  PHE194     -0.0042
     58  CE1      -17.7500   43.5430  -38.1150 C.ar  194  PHE194     -0.0003
     59  CE2      -16.6970   45.6300  -37.6230 C.ar  194  PHE194     -0.0003
     60  CZ       -17.6680   44.6990  -37.3470 C.ar  194  PHE194     -0.0000
     61  N        -16.3510   52.3640  -29.1820 N.3   250  ASP250     -0.1239
     62  CA       -16.8810   51.1080  -28.6360 C.3   250  ASP250      0.1674
     63  C        -16.1420   50.8020  -27.3490 C.2   250  ASP250      0.2266
     64  O        -14.9220   50.9670  -27.2610 O.2   250  ASP250     -0.2867
     65  CB       -16.7180   49.9220  -29.6040 C.3   250  ASP250      0.1410
     66  CG       -15.2830   49.7390  -30.0610 C.2   250  ASP250      0.3668
     67  OD1      -14.5990   48.8150  -29.5270 O.co2 250  ASP250     -0.2456
     68  OD2      -14.7500   50.4940  -30.9270 O.co2 250  ASP250     -0.2456
     69  N        -16.2970   47.9240  -23.9340 N.3   252  MET252     -0.1245
     70  CA       -16.7760   46.9990  -22.9220 C.3   252  MET252      0.1570
     71  C        -16.1930   47.3660  -21.5680 C.2   252  MET252      0.2261
     72  O        -15.0050   47.6840  -21.4480 O.2   252  MET252     -0.2867
     73  CB       -16.3860   45.5670  -23.2690 C.3   252  MET252      0.0387
     74  CG       -17.0060   45.0540  -24.5280 C.3   252  MET252      0.0595
     75  SD       -16.5910   43.3130  -24.7400 S.3   252  MET252     -0.1393
     76  CE       -17.4740   42.9050  -26.1350 C.3   252  MET252      0.0692
     77  N        -22.4280   48.2400  -24.5330 N.3   322  TYR322     -0.1241
     78  CA       -23.3250   47.0900  -24.6140 C.3   322  TYR322      0.1605
     79  C        -23.1290   46.0520  -23.4920 C.2   322  TYR322      0.2264
     80  O        -24.0780   45.3980  -23.0510 O.2   322  TYR322     -0.2867
     81  CB       -23.1090   46.3860  -25.9440 C.3   322  TYR322      0.0534
     82  CG       -23.5930   47.1620  -27.1370 C.ar  322  TYR322     -0.0201
     83  CD1      -22.7970   48.1400  -27.7320 C.ar  322  TYR322     -0.0009
     84  CD2      -24.8460   46.9200  -27.6750 C.ar  322  TYR322     -0.0009
     85  CE1      -23.2580   48.8630  -28.8500 C.ar  322  TYR322      0.0417
     86  CE2      -25.3020   47.6210  -28.7820 C.ar  322  TYR322      0.0417
     87  CZ       -24.5020   48.5850  -29.3670 C.ar  322  TYR322      0.1957
     88  OH       -24.9670   49.2630  -30.4620 O.3   322  TYR322     -0.2866
     89  N        -22.4450   37.7470  -27.9490 N.3   367  TRP367     -0.1241
     90  CA       -21.5470   38.5920  -27.1740 C.3   367  TRP367      0.1605
     91  C        -22.1390   39.5420  -26.1350 C.2   367  TRP367      0.2264
     92  O        -21.4060   40.0160  -25.2800 O.2   367  TRP367     -0.2867
     93  CB       -20.6300   39.3590  -28.1230 C.3   367  TRP367      0.0550
     94  CG       -21.3200   40.3810  -28.9630 C.ar  367  TRP367      0.0003
     95  CD1      -22.0150   40.1630  -30.1100 C.ar  367  TRP367      0.0946
     96  CD2      -21.3500   41.7940  -28.7350 C.ar  367  TRP367      0.0152
     97  NE1      -22.4900   41.3570  -30.6090 N.ar  367  TRP367     -0.2442
     98  CE2      -22.1020   42.3730  -29.7780 C.ar  367  TRP367      0.0810
     99  CE3      -20.8250   42.6310  -27.7460 C.ar  367  TRP367      0.0012
    100  CZ2      -22.3410   43.7500  -29.8620 C.ar  367  TRP367      0.0191
    101  CZ3      -21.0660   44.0030  -27.8270 C.ar  367  TRP367      0.0001
    102  CH2      -21.8080   44.5460  -28.8830 C.ar  367  TRP367      0.0015
    103  N        -26.6000   43.5080  -39.7980 N.3   453  GLU453     -0.1231
    104  CA       -25.6650   43.4470  -38.6770 C.3   453  GLU453      0.1699
    105  C        -24.2980   42.8900  -39.0980 C.2   453  GLU453      0.2592
    106  O        -23.8010   41.9120  -38.5260 O.2   453  GLU453     -0.2718
    107  CB       -26.3060   42.6240  -37.5380 C.3   453  GLU453      0.0402
    108  CG       -25.5020   42.4400  -36.2570 C.3   453  GLU453      0.1161
    109  CD       -24.9020   43.7190  -35.7060 C.2   453  GLU453      0.3649
    110  OE1      -25.4700   44.8100  -35.9270 O.co2 453  GLU453     -0.2457
    111  OE2      -23.8500   43.6270  -35.0320 O.co2 453  GLU453     -0.2457
    112  N        -23.6930   43.5300  -40.0990 N.am  454  TRP454     -0.1962
    113  CA       -22.3060   43.2790  -40.4810 C.3   454  TRP454      0.1771
    114  C        -22.1120   41.7940  -40.7980 C.2   454  TRP454      0.2619
    115  O        -22.9130   41.2540  -41.5610 O.2   454  TRP454     -0.2715
    116  CB       -21.3420   43.8330  -39.4170 C.3   454  TRP454      0.0590
    117  CG       -21.5800   45.2880  -39.1700 C.ar  454  TRP454      0.0006
    118  CD1      -22.0190   45.8610  -38.0210 C.ar  454  TRP454      0.0946
    119  CD2      -21.4300   46.3530  -40.1140 C.ar  454  TRP454      0.0152
    120  NE1      -22.1360   47.2210  -38.1790 N.ar  454  TRP454     -0.2442
    121  CE2      -21.7760   47.5520  -39.4550 C.ar  454  TRP454      0.0810
    122  CE3      -21.0250   46.4210  -41.4550 C.ar  454  TRP454      0.0012
    123  CZ2      -21.7410   48.8020  -40.0900 C.ar  454  TRP454      0.0191
    124  CZ3      -20.9840   47.6740  -42.0790 C.ar  454  TRP454      0.0001
    125  CH2      -21.3350   48.8370  -41.3900 C.ar  454  TRP454      0.0015
    126  N        -21.1030   41.1240  -40.2360 N.am  455  PHE455     -0.1974
    127  CA       -20.8780   39.6930  -40.5670 C.3   455  PHE455      0.1639
    128  C        -21.9790   38.7490  -40.0780 C.2   455  PHE455      0.2290
    129  O        -22.0170   37.5770  -40.4810 O.2   455  PHE455     -0.2864
    130  CB       -19.4850   39.1910  -40.1250 C.3   455  PHE455      0.0560
    131  CG       -19.3020   39.0820  -38.6360 C.ar  455  PHE455     -0.0200
    132  CD1      -18.5530   40.0290  -37.9500 C.ar  455  PHE455     -0.0042
    133  CD2      -19.8610   38.0280  -37.9210 C.ar  455  PHE455     -0.0042
    134  CE1      -18.3840   39.9420  -36.5650 C.ar  455  PHE455     -0.0003
    135  CE2      -19.6970   37.9310  -36.5460 C.ar  455  PHE455     -0.0003
    136  CZ       -18.9520   38.8750  -35.8630 C.ar  455  PHE455     -0.0000
@<TRIPOS>BOND
     1     4     3    2
     2     3     2    1
     3    53    52    2
     4    52    51    1
     5   124   122   ar
     6   124   125   ar
     7     2     1    1
     8     2     5    1
     9   115   114    2
    10   122   119   ar
    11    51    50    1
    12    51    54    1
    13   125   123   ar
    14     5     6    1
    15   114   113    1
    16   114   126   am
    17   127   126    1
    18   127   130    1
    19   127   128    1
    20    54    55    1
    21   129   128    2
    22   113   112    1
    23   113   116    1
    24   130   131    1
    25   119   121   ar
    26   119   117   ar
    27   112   105   am
    28   123   121   ar
    29   103   104    1
    30     6     7   ar
    31     6     8   ar
    32   121   120   ar
    33    55    56   ar
    34    55    57   ar
    35   116   117    1
    36   117   118   ar
    37    56    58   ar
    38   105   104    1
    39   105   106    2
    40    42    41    2
    41    11     8   ar
    42    11    13   ar
    43     7     9   ar
    44     8    10   ar
    45   104   107    1
    46    57    59   ar
    47   131   132   ar
    48   131   133   ar
    49    41    40    1
    50   120   118   ar
    51    58    60   ar
    52   132   134   ar
    53   133   135   ar
    54    13    14   ar
    55    59    60   ar
    56   107   108    1
    57     9    10   ar
    58    10    12   ar
    59    40    43    1
    60    40    39    1
    61    43    44    1
    62   134   136   ar
    63   135   136   ar
    64    14    12   ar
    65   108   109    1
    66   110   109   ar
    67   109   111   ar
    68    35    34    2
    69    44    45   ar
    70    44    46   ar
    71    45    47   ar
    72    34    33    1
    73    18    17    2
    74    46    48   ar
    75    47    49   ar
    76    38    36    1
    77    17    16    1
    78    15    16    1
    79    33    36    1
    80    33    32    1
    81    19    16    1
    82    19    20    1
    83    36    37    1
    84    26    25    2
    85    48    49   ar
    86    32    25   am
    87    22    20   ar
    88    25    24    1
    89    20    21   ar
    90    23    24    1
    91    24    27    1
    92    68    66   ar
    93    27    28    1
    94    97    95   ar
    95    97    98   ar
    96    88    87    1
    97    30    29    2
    98    29    28    1
    99    29    31   am
   100    95    94   ar
   101    66    65    1
   102    66    67   ar
   103   100    98   ar
   104   100   102   ar
   105    98    96   ar
   106    65    62    1
   107    87    85   ar
   108    87    86   ar
   109    61    62    1
   110    94    96   ar
   111    94    93    1
   112   102   101   ar
   113    85    83   ar
   114    86    84   ar
   115    96    99   ar
   116    62    63    1
   117    93    90    1
   118    89    90    1
   119   101    99   ar
   120    83    82   ar
   121    84    82   ar
   122    63    64    2
   123    90    91    1
   124    82    81    1
   125    76    75    1
   126    91    92    2
   127    81    78    1
   128    75    74    1
   129    78    77    1
   130    78    79    1
   131    74    73    1
   132    69    70    1
   133    79    80    2
   134    73    70    1
   135    70    71    1
   136    71    72    2
