@<TRIPOS>MOLECULE
tmp/1v08B00.pdb
 156 155 0 0 0
SMALL
GASTEIGER

@<TRIPOS>ATOM
      1  N        -25.9000   50.0210  -43.0550 N.3    27  GLN27      -0.1245
      2  CA       -26.7990   49.0980  -42.3930 C.3    27  GLN27       0.1566
      3  C        -28.2670   49.3100  -42.7770 C.2    27  GLN27       0.2260
      4  O        -29.0050   48.3440  -42.8450 O.2    27  GLN27      -0.2867
      5  CB       -26.5940   49.1540  -40.8800 C.3    27  GLN27       0.0367
      6  CG       -25.2330   48.6020  -40.4630 C.3    27  GLN27       0.0905
      7  CD       -25.0320   48.6200  -38.9650 C.2    27  GLN27       0.2608
      8  OE1      -24.6570   49.6420  -38.4150 O.2    27  GLN27      -0.2717
      9  NE2      -25.2910   47.4910  -38.3040 N.am   27  GLN27      -0.0878
     10  N        -18.8020   55.6350  -40.6200 N.3   131  HIS131     -0.1226
     11  CA       -19.2730   54.4420  -39.9230 C.3   131  HIS131      0.1752
     12  C        -18.9310   53.2500  -40.8170 C.2   131  HIS131      0.2596
     13  O        -19.8130   52.4830  -41.2240 O.2   131  HIS131     -0.2718
     14  CB       -20.7880   54.5320  -39.6430 C.3   131  HIS131      0.0759
     15  CG       -21.2590   53.6770  -38.4980 C.ar  131  HIS131      0.0818
     16  ND1      -21.8770   54.2020  -37.3820 N.ar  131  HIS131     -0.2268
     17  CD2      -21.2410   52.3330  -38.3170 C.ar  131  HIS131      0.1154
     18  CE1      -22.2000   53.2230  -36.5550 C.ar  131  HIS131      0.1986
     19  NE2      -21.8290   52.0780  -37.1000 N.ar  131  HIS131     -0.2212
     20  N        -17.6390   53.1600  -41.1490 N.am  132  TRP132     -0.1976
     21  CA       -16.9690   51.9580  -41.6900 C.3   132  TRP132      0.1640
     22  C        -17.0300   51.7520  -43.2060 C.2   132  TRP132      0.2290
     23  O        -16.4230   50.8190  -43.7300 O.2   132  TRP132     -0.2864
     24  CB       -17.4770   50.6800  -41.0150 C.3   132  TRP132      0.0576
     25  CG       -17.4350   50.6850  -39.5300 C.ar  132  TRP132      0.0006
     26  CD1      -16.8970   51.6420  -38.7040 C.ar  132  TRP132      0.0946
     27  CD2      -17.9560   49.6670  -38.6780 C.ar  132  TRP132      0.0152
     28  NE1      -17.0640   51.2720  -37.3910 N.ar  132  TRP132     -0.2442
     29  CE2      -17.7070   50.0590  -37.3490 C.ar  132  TRP132      0.0810
     30  CE3      -18.6190   48.4580  -38.9040 C.ar  132  TRP132      0.0012
     31  CZ2      -18.0970   49.2810  -36.2530 C.ar  132  TRP132      0.0191
     32  CZ3      -19.0020   47.6860  -37.8120 C.ar  132  TRP132      0.0001
     33  CH2      -18.7510   48.1080  -36.5110 C.ar  132  TRP132      0.0015
     34  N        -16.8280   56.2900  -35.9460 N.3   179  ASN179     -0.1225
     35  CA       -17.5270   55.3830  -35.0730 C.3   179  ASN179      0.1785
     36  C        -16.6510   54.1680  -34.8520 C.2   179  ASN179      0.2597
     37  O        -16.1230   53.6130  -35.8230 O.2   179  ASN179     -0.2718
     38  CB       -18.8320   54.9450  -35.7170 C.3   179  ASN179      0.1169
     39  CG       -19.5870   53.9900  -34.8440 C.2   179  ASN179      0.2627
     40  OD1      -20.1630   54.3990  -33.8440 O.2   179  ASN179     -0.2716
     41  ND2      -19.5480   52.7050  -35.1850 N.am  179  ASN179     -0.0877
     42  N        -16.4950   53.7780  -33.5850 N.am  180  ASP180     -0.1974
     43  CA       -15.7710   52.5680  -33.2010 C.3   180  ASP180      0.1709
     44  C        -14.4740   52.3870  -33.9610 C.2   180  ASP180      0.2293
     45  O        -14.3390   51.4190  -34.6880 O.2   180  ASP180     -0.2864
     46  CB       -16.5960   51.3250  -33.5170 C.3   180  ASP180      0.1436
     47  CG       -17.8420   51.1830  -32.6840 C.2   180  ASP180      0.3671
     48  OD1      -18.1690   52.0330  -31.8170 O.co2 180  ASP180     -0.2456
     49  OD2      -18.5620   50.1780  -32.8580 O.co2 180  ASP180     -0.2456
     50  N        -13.1520   48.7120  -32.9090 N.3   183  THR183     -0.1218
     51  CA       -13.7770   47.5660  -33.5590 C.3   183  THR183      0.1862
     52  C        -13.4320   47.5170  -35.0470 C.2   183  THR183      0.2287
     53  O        -13.1150   46.4460  -35.5970 O.2   183  THR183     -0.2866
     54  CB       -15.3070   47.5930  -33.3700 C.3   183  THR183      0.1770
     55  OG1      -15.6190   47.4450  -31.9810 O.3   183  THR183     -0.2211
     56  CG2      -15.9500   46.3830  -34.0100 C.3   183  THR183      0.0375
     57  N        -16.3510   52.3640  -29.1820 N.3   250  ASP250     -0.1239
     58  CA       -16.8810   51.1080  -28.6360 C.3   250  ASP250      0.1674
     59  C        -16.1420   50.8020  -27.3490 C.2   250  ASP250      0.2266
     60  O        -14.9220   50.9670  -27.2610 O.2   250  ASP250     -0.2867
     61  CB       -16.7180   49.9220  -29.6040 C.3   250  ASP250      0.1410
     62  CG       -15.2830   49.7390  -30.0610 C.2   250  ASP250      0.3668
     63  OD1      -14.5990   48.8150  -29.5270 O.co2 250  ASP250     -0.2456
     64  OD2      -14.7500   50.4940  -30.9270 O.co2 250  ASP250     -0.2456
     65  N        -20.2960   53.8940  -27.0790 N.3   320  ASN320     -0.1240
     66  CA       -21.1440   52.8010  -27.5360 C.3   320  ASN320      0.1653
     67  C        -20.9630   51.6070  -26.6050 C.2   320  ASN320      0.2266
     68  O        -20.0170   50.8190  -26.7590 O.2   320  ASN320     -0.2867
     69  CB       -20.7840   52.4090  -28.9630 C.3   320  ASN320      0.1155
     70  CG       -21.0280   53.5350  -29.9480 C.2   320  ASN320      0.2627
     71  OD1      -21.7780   54.4740  -29.6640 O.2   320  ASN320     -0.2716
     72  ND2      -20.3770   53.4610  -31.0940 N.am  320  ASN320     -0.0877
     73  N        -22.4280   48.2400  -24.5330 N.3   322  TYR322     -0.1241
     74  CA       -23.3250   47.0900  -24.6140 C.3   322  TYR322      0.1605
     75  C        -23.1290   46.0520  -23.4920 C.2   322  TYR322      0.2264
     76  O        -24.0780   45.3980  -23.0510 O.2   322  TYR322     -0.2867
     77  CB       -23.1090   46.3860  -25.9440 C.3   322  TYR322      0.0534
     78  CG       -23.5930   47.1620  -27.1370 C.ar  322  TYR322     -0.0201
     79  CD1      -22.7970   48.1400  -27.7320 C.ar  322  TYR322     -0.0009
     80  CD2      -24.8460   46.9200  -27.6750 C.ar  322  TYR322     -0.0009
     81  CE1      -23.2580   48.8630  -28.8500 C.ar  322  TYR322      0.0417
     82  CE2      -25.3020   47.6210  -28.7820 C.ar  322  TYR322      0.0417
     83  CZ       -24.5020   48.5850  -29.3670 C.ar  322  TYR322      0.1957
     84  OH       -24.9670   49.2630  -30.4620 O.3   322  TYR322     -0.2866
     85  N        -22.4450   37.7470  -27.9490 N.3   367  TRP367     -0.1241
     86  CA       -21.5470   38.5920  -27.1740 C.3   367  TRP367      0.1605
     87  C        -22.1390   39.5420  -26.1350 C.2   367  TRP367      0.2264
     88  O        -21.4060   40.0160  -25.2800 O.2   367  TRP367     -0.2867
     89  CB       -20.6300   39.3590  -28.1230 C.3   367  TRP367      0.0550
     90  CG       -21.3200   40.3810  -28.9630 C.ar  367  TRP367      0.0003
     91  CD1      -22.0150   40.1630  -30.1100 C.ar  367  TRP367      0.0946
     92  CD2      -21.3500   41.7940  -28.7350 C.ar  367  TRP367      0.0152
     93  NE1      -22.4900   41.3570  -30.6090 N.ar  367  TRP367     -0.2442
     94  CE2      -22.1020   42.3730  -29.7780 C.ar  367  TRP367      0.0810
     95  CE3      -20.8250   42.6310  -27.7460 C.ar  367  TRP367      0.0012
     96  CZ2      -22.3410   43.7500  -29.8620 C.ar  367  TRP367      0.0191
     97  CZ3      -21.0660   44.0030  -27.8270 C.ar  367  TRP367      0.0001
     98  CH2      -21.8080   44.5460  -28.8830 C.ar  367  TRP367      0.0015
     99  N        -24.7190   54.5810  -28.5620 N.3   395  GLU395     -0.1245
    100  CA       -25.3590   53.3010  -28.8550 C.3   395  GLU395      0.1567
    101  C        -25.5640   52.4790  -27.5760 C.2   395  GLU395      0.2260
    102  O        -24.6920   52.4570  -26.6980 O.2   395  GLU395     -0.2867
    103  CB       -24.5080   52.4520  -29.8110 C.3   395  GLU395      0.0388
    104  CG       -24.2990   53.0330  -31.1980 C.3   395  GLU395      0.1160
    105  CD       -23.5620   52.0900  -32.1290 C.2   395  GLU395      0.3649
    106  OE1      -23.0170   52.5690  -33.1600 O.co2 395  GLU395     -0.2457
    107  OE2      -23.5020   50.8740  -31.8270 O.co2 395  GLU395     -0.2457
    108  N        -29.4370   51.8950  -29.8010 N.3   446  TRP446     -0.1241
    109  CA       -28.9060   51.3820  -31.0470 C.3   446  TRP446      0.1605
    110  C        -29.9770   50.6030  -31.7400 C.2   446  TRP446      0.2264
    111  O        -30.4030   49.5000  -31.3210 O.2   446  TRP446     -0.2867
    112  CB       -27.6300   50.5510  -30.9760 C.3   446  TRP446      0.0550
    113  CG       -27.3910   49.9290  -32.3400 C.ar  446  TRP446      0.0003
    114  CD1      -27.6070   48.6420  -32.6880 C.ar  446  TRP446      0.0946
    115  CD2      -26.9870   50.6040  -33.5510 C.ar  446  TRP446      0.0152
    116  NE1      -27.3400   48.4500  -34.0220 N.ar  446  TRP446     -0.2442
    117  CE2      -26.9580   49.6400  -34.5790 C.ar  446  TRP446      0.0810
    118  CE3      -26.6400   51.9230  -33.8660 C.ar  446  TRP446      0.0012
    119  CZ2      -26.5950   49.9470  -35.8910 C.ar  446  TRP446      0.0191
    120  CZ3      -26.2720   52.2310  -35.1720 C.ar  446  TRP446      0.0001
    121  CH2      -26.2580   51.2450  -36.1720 C.ar  446  TRP446      0.0015
    122  N        -26.6000   43.5080  -39.7980 N.3   453  GLU453     -0.1231
    123  CA       -25.6650   43.4470  -38.6770 C.3   453  GLU453      0.1699
    124  C        -24.2980   42.8900  -39.0980 C.2   453  GLU453      0.2592
    125  O        -23.8010   41.9120  -38.5260 O.2   453  GLU453     -0.2718
    126  CB       -26.3060   42.6240  -37.5380 C.3   453  GLU453      0.0402
    127  CG       -25.5020   42.4400  -36.2570 C.3   453  GLU453      0.1161
    128  CD       -24.9020   43.7190  -35.7060 C.2   453  GLU453      0.3649
    129  OE1      -25.4700   44.8100  -35.9270 O.co2 453  GLU453     -0.2457
    130  OE2      -23.8500   43.6270  -35.0320 O.co2 453  GLU453     -0.2457
    131  N        -23.6930   43.5300  -40.0990 N.am  454  TRP454     -0.1976
    132  CA       -22.3060   43.2790  -40.4810 C.3   454  TRP454      0.1640
    133  C        -22.1120   41.7940  -40.7980 C.2   454  TRP454      0.2290
    134  O        -22.9130   41.2540  -41.5610 O.2   454  TRP454     -0.2864
    135  CB       -21.3420   43.8330  -39.4170 C.3   454  TRP454      0.0576
    136  CG       -21.5800   45.2880  -39.1700 C.ar  454  TRP454      0.0006
    137  CD1      -22.0190   45.8610  -38.0210 C.ar  454  TRP454      0.0946
    138  CD2      -21.4300   46.3530  -40.1140 C.ar  454  TRP454      0.0152
    139  NE1      -22.1360   47.2210  -38.1790 N.ar  454  TRP454     -0.2442
    140  CE2      -21.7760   47.5520  -39.4550 C.ar  454  TRP454      0.0810
    141  CE3      -21.0250   46.4210  -41.4550 C.ar  454  TRP454      0.0012
    142  CZ2      -21.7410   48.8020  -40.0900 C.ar  454  TRP454      0.0191
    143  CZ3      -20.9840   47.6740  -42.0790 C.ar  454  TRP454      0.0001
    144  CH2      -21.3350   48.8370  -41.3900 C.ar  454  TRP454      0.0015
    145  N        -31.7090   44.3010  -34.0630 N.3   462  TYR462     -0.1241
    146  CA       -31.4010   45.2690  -32.9930 C.3   462  TYR462      0.1605
    147  C        -32.4220   46.4030  -32.8770 C.2   462  TYR462      0.2264
    148  O        -32.3210   47.2530  -31.9990 O.2   462  TYR462     -0.2867
    149  CB       -30.0310   45.8990  -33.2330 C.3   462  TYR462      0.0534
    150  CG       -28.8520   45.1220  -32.7020 C.ar  462  TYR462     -0.0201
    151  CD1      -28.2600   44.1190  -33.4610 C.ar  462  TYR462     -0.0009
    152  CD2      -28.3160   45.4000  -31.4430 C.ar  462  TYR462     -0.0009
    153  CE1      -27.1580   43.4020  -32.9820 C.ar  462  TYR462      0.0417
    154  CE2      -27.2050   44.6930  -30.9580 C.ar  462  TYR462      0.0417
    155  CZ       -26.6380   43.6960  -31.7350 C.ar  462  TYR462      0.1957
    156  OH       -25.5410   42.9930  -31.2890 O.3   462  TYR462     -0.2866
@<TRIPOS>BOND
     1    23    22    2
     2    22    21    1
     3     1     2    1
     4     4     3    2
     5     3     2    1
     6     2     5    1
     7   143   141   ar
     8   143   144   ar
     9    21    20    1
    10    21    24    1
    11   134   133    2
    12   141   138   ar
    13   144   142   ar
    14    13    12    2
    15    20    12   am
    16    24    25    1
    17     5     6    1
    18    12    11    1
    19   133   132    1
    20    10    11    1
    21   132   131    1
    22   132   135    1
    23     6     7    1
    24   138   140   ar
    25   138   136   ar
    26   131   124   am
    27   142   140   ar
    28    11    14    1
    29   122   123    1
    30    14    15    1
    31    25    26   ar
    32    25    27   ar
    33   140   139   ar
    34   135   136    1
    35   136   137   ar
    36   124   123    1
    37   124   125    2
    38     7     8    2
    39     7     9   am
    40    30    27   ar
    41    30    32   ar
    42    26    28   ar
    43    27    29   ar
    44   123   126    1
    45    15    17   ar
    46    15    16   ar
    47    17    19   ar
    48   139   137   ar
    49    32    33   ar
    50   126   127    1
    51    28    29   ar
    52    16    18   ar
    53    29    31   ar
    54    19    18   ar
    55    33    31   ar
    56   127   128    1
    57   121   119   ar
    58   121   120   ar
    59    34    35    1
    60   129   128   ar
    61   119   117   ar
    62    37    36    2
    63    38    35    1
    64    38    39    1
    65   128   130   ar
    66    53    52    2
    67    41    39   am
    68   120   118   ar
    69    35    36    1
    70    52    51    1
    71    36    42   am
    72    39    40    2
    73    45    44    2
    74   117   116   ar
    75   117   115   ar
    76   145   146    1
    77   116   114   ar
    78    56    54    1
    79    44    43    1
    80   118   115   ar
    81    42    43    1
    82    51    54    1
    83    51    50    1
    84   115   113   ar
    85    46    43    1
    86    46    47    1
    87   151   153   ar
    88   151   150   ar
    89    54    55    1
    90   149   146    1
    91   149   150    1
    92   106   105   ar
    93   146   147    1
    94   153   155   ar
    95   147   148    2
    96    49    47   ar
    97   150   152   ar
    98   114   113   ar
    99    47    48   ar
   100   113   112    1
   101   105   107   ar
   102   105   104    1
   103   110   111    2
   104   110   109    1
   105   155   156    1
   106   155   154   ar
   107   152   154   ar
   108   104   103    1
   109    72    70   am
   110   109   112    1
   111   109   108    1
   112    64    62   ar
   113    93    91   ar
   114    93    94   ar
   115    84    83    1
   116    91    90   ar
   117    62    61    1
   118    62    63   ar
   119    70    71    2
   120    70    69    1
   121    96    94   ar
   122    96    98   ar
   123   103   100    1
   124    94    92   ar
   125    61    58    1
   126    83    81   ar
   127    83    82   ar
   128    57    58    1
   129    90    92   ar
   130    90    89    1
   131    69    66    1
   132    98    97   ar
   133   100    99    1
   134   100   101    1
   135    81    79   ar
   136    82    80   ar
   137    92    95   ar
   138    58    59    1
   139    89    86    1
   140    85    86    1
   141    97    95   ar
   142    79    78   ar
   143    80    78   ar
   144   101   102    2
   145    66    65    1
   146    66    67    1
   147    59    60    2
   148    86    87    1
   149    78    77    1
   150    68    67    2
   151    87    88    2
   152    77    74    1
   153    74    73    1
   154    74    75    1
   155    75    76    2
