@<TRIPOS>MOLECULE
tmp/1v0cA01.pdb
 211 209 0 0 0
SMALL
GASTEIGER

@<TRIPOS>ATOM
      1  N          6.6110    2.8530   10.8130 N.3    28  TRP28      -0.1227
      2  CA         6.9680    4.0300   11.6110 C.3    28  TRP28       0.1737
      3  C          8.2600    4.7690   11.2030 C.2    28  TRP28       0.2595
      4  O          8.5440    5.8620   11.7090 O.2    28  TRP28      -0.2718
      5  CB         7.0420    3.6170   13.0780 C.3    28  TRP28       0.0564
      6  CG         5.7450    3.0820   13.6020 C.ar   28  TRP28       0.0003
      7  CD1        5.4850    1.8000   13.9970 C.ar   28  TRP28       0.0946
      8  CD2        4.5220    3.8230   13.8020 C.ar   28  TRP28       0.0152
      9  NE1        4.1810    1.6950   14.4360 N.ar   28  TRP28      -0.2442
     10  CE2        3.5670    2.9190   14.3200 C.ar   28  TRP28       0.0810
     11  CE3        4.1470    5.1630   13.5970 C.ar   28  TRP28       0.0012
     12  CZ2        2.2530    3.3090   14.6300 C.ar   28  TRP28       0.0191
     13  CZ3        2.8490    5.5480   13.9100 C.ar   28  TRP28       0.0001
     14  CH2        1.9180    4.6200   14.4200 C.ar   28  TRP28       0.0015
     15  N          9.0320    4.1830   10.2940 N.am   29  TRP29      -0.1962
     16  CA        10.3610    4.6920    9.9500 C.3    29  TRP29       0.1771
     17  C         10.5390    4.8920    8.4410 C.2    29  TRP29       0.2620
     18  O         10.4120    3.9460    7.6600 O.2    29  TRP29      -0.2715
     19  CB        11.4110    3.6820   10.4380 C.3    29  TRP29       0.0590
     20  CG        12.8100    4.2200   10.6130 C.ar   29  TRP29       0.0006
     21  CD1       13.7080    4.5240    9.6240 C.ar   29  TRP29       0.0946
     22  CD2       13.4860    4.4760   11.8570 C.ar   29  TRP29       0.0152
     23  NE1       14.8930    4.9570   10.1750 N.ar   29  TRP29      -0.2442
     24  CE2       14.7900    4.9380   11.5400 C.ar   29  TRP29       0.0810
     25  CE3       13.1140    4.3730   13.2050 C.ar   29  TRP29       0.0012
     26  CZ2       15.7300    5.3070   12.5250 C.ar   29  TRP29       0.0191
     27  CZ3       14.0620    4.7370   14.1910 C.ar   29  TRP29       0.0001
     28  CH2       15.3490    5.1970   13.8370 C.ar   29  TRP29       0.0015
     29  N         10.8740    6.0950    8.0190 N.am   30  GLY30      -0.1954
     30  CA        11.2800    6.2920    6.6250 C.3    30  GLY30       0.1869
     31  C         10.8060    7.5780    5.9670 C.2    30  GLY30       0.2309
     32  O         11.5820    8.2360    5.2600 O.2    30  GLY30      -0.2863
     33  N         23.1000    6.7220    3.0850 N.3    41  GLN41      -0.1231
     34  CA        22.4920    7.5200    4.1360 C.3    41  GLN41       0.1698
     35  C         22.9500    7.1510    5.5560 C.2    41  GLN41       0.2592
     36  O         23.0800    8.0300    6.4040 O.2    41  GLN41      -0.2718
     37  CB        20.9670    7.4840    4.0190 C.3    41  GLN41       0.0381
     38  CG        20.4820    8.0110    2.6160 C.3    41  GLN41       0.0905
     39  CD        19.0090    7.7610    2.3500 C.2    41  GLN41       0.2608
     40  OE1       18.1970    7.6530    3.2910 O.2    41  GLN41      -0.2717
     41  NE2       18.6470    7.6730    1.0680 N.am   41  GLN41      -0.0878
     42  N         23.2150    5.8670    5.7980 N.am   42  TYR42      -0.1976
     43  CA        23.5440    5.3860    7.1420 C.3    42  TYR42       0.1639
     44  C         25.0040    5.0030    7.3750 C.2    42  TYR42       0.2290
     45  O         25.3580    4.6170    8.4850 O.2    42  TYR42      -0.2864
     46  CB        22.6390    4.2240    7.5440 C.3    42  TYR42       0.0560
     47  CG        21.1960    4.6070    7.7700 C.ar   42  TYR42      -0.0198
     48  CD1       20.7390    4.9420    9.0510 C.ar   42  TYR42      -0.0009
     49  CD2       20.2850    4.6400    6.7090 C.ar   42  TYR42      -0.0009
     50  CE1       19.4100    5.2780    9.2780 C.ar   42  TYR42       0.0417
     51  CE2       18.9500    4.9950    6.9140 C.ar   42  TYR42       0.0417
     52  CZ        18.5150    5.3020    8.2140 C.ar   42  TYR42       0.1957
     53  OH        17.1980    5.6480    8.4450 O.3    42  TYR42      -0.2866
     54  N         26.5990    9.8500    8.2830 N.3    47  LEU47      -0.1245
     55  CA        25.7870   10.3080    9.4200 C.3    47  LEU47       0.1561
     56  C         26.5250   11.3870   10.2650 C.2    47  LEU47       0.2260
     57  O         25.9090   12.3220   10.7920 O.2    47  LEU47      -0.2867
     58  CB        25.3150    9.1010   10.2630 C.3    47  LEU47       0.0270
     59  CG        24.1880    8.2220    9.6550 C.3    47  LEU47       0.0019
     60  CD1       23.9600    6.9750   10.4600 C.3    47  LEU47       0.0001
     61  CD2       22.9050    8.9860    9.5350 C.3    47  LEU47       0.0001
     62  N         26.0080   14.9350    9.6460 N.3    50  GLU50      -0.1245
     63  CA        24.6900   15.3370   10.1460 C.3    50  GLU50       0.1567
     64  C         24.6810   15.4750   11.6690 C.2    50  GLU50       0.2260
     65  O         23.6330   15.7410   12.2670 O.2    50  GLU50      -0.2867
     66  CB        23.6800   14.2450    9.7660 C.3    50  GLU50       0.0388
     67  CG        23.5540   14.0120    8.2600 C.3    50  GLU50       0.1160
     68  CD        23.2090   15.2950    7.5510 C.2    50  GLU50       0.3649
     69  OE1       22.4370   16.1130    8.1190 O.co2  50  GLU50      -0.2457
     70  OE2       23.7370   15.5090    6.4440 O.co2  50  GLU50      -0.2457
     71  N         25.0210   12.9270   13.5120 N.3    52  VAL52      -0.1245
     72  CA        24.3290   11.7060   13.9240 C.3    52  VAL52       0.1561
     73  C         25.3090   10.5640   14.2030 C.2    52  VAL52       0.2260
     74  O         26.2010   10.2580   13.3930 O.2    52  VAL52      -0.2867
     75  CB        23.2190   11.2620   12.8810 C.3    52  VAL52       0.0252
     76  CG1       22.5260    9.9640   13.3190 C.3    52  VAL52       0.0019
     77  CG2       22.1900   12.3400   12.6860 C.3    52  VAL52       0.0019
     78  N         20.0820    5.8540   17.1670 N.3    68  GLN68      -0.1245
     79  CA        20.9560    6.9620   16.8580 C.3    68  GLN68       0.1566
     80  C         20.7900    8.0750   17.8930 C.2    68  GLN68       0.2260
     81  O         19.7090    8.2410   18.4860 O.2    68  GLN68      -0.2867
     82  CB        20.7130    7.5050   15.4390 C.3    68  GLN68       0.0367
     83  CG        19.2580    7.8150   15.1290 C.3    68  GLN68       0.0905
     84  CD        19.0430    8.3570   13.7340 C.2    68  GLN68       0.2608
     85  OE1       19.6430    7.8820   12.7700 O.2    68  GLN68      -0.2717
     86  NE2       18.1480    9.3380   13.6140 N.am   68  GLN68      -0.0878
     87  N         21.8870   12.4010   18.1770 N.3    70  TYR70      -0.1241
     88  CA        22.3070   13.4870   17.3330 C.3    70  TYR70       0.1605
     89  C         22.4010   14.7640   18.1760 C.2    70  TYR70       0.2264
     90  O         21.6980   14.9020   19.1810 O.2    70  TYR70      -0.2867
     91  CB        21.3470   13.6700   16.1120 C.3    70  TYR70       0.0534
     92  CG        19.8910   13.8900   16.4960 C.ar   70  TYR70      -0.0201
     93  CD1       19.4290   15.1700   16.8200 C.ar   70  TYR70      -0.0009
     94  CD2       18.9810   12.8210   16.5490 C.ar   70  TYR70      -0.0009
     95  CE1       18.1040   15.3990   17.2070 C.ar   70  TYR70       0.0417
     96  CE2       17.6240   13.0430   16.9370 C.ar   70  TYR70       0.0417
     97  CZ        17.2080   14.3420   17.2700 C.ar   70  TYR70       0.1957
     98  OH        15.9020   14.6240   17.6590 O.3    70  TYR70      -0.2866
     99  N         21.3360   21.0400   13.4300 N.3    75  SER75      -0.1202
    100  CA        20.9750   19.8000   12.6910 C.3    75  SER75       0.2020
    101  C         20.8010   20.0240   11.1860 C.2    75  SER75       0.2619
    102  O         20.8780   19.0800   10.4100 O.2    75  SER75      -0.2717
    103  CB        19.6510   19.2220   13.2000 C.3    75  SER75       0.2103
    104  OG        19.8080   18.3740   14.3180 O.3    75  SER75      -0.2182
    105  N         20.5220   21.2620   10.7870 N.am   76  GLY76      -0.1942
    106  CA        20.2460   21.5910    9.3720 C.3    76  GLY76       0.2014
    107  C         18.9450   21.0080    8.8290 C.2    76  GLY76       0.2638
    108  O         18.2460   20.2710    9.5380 O.2    76  GLY76      -0.2714
    109  N         18.6330   21.3360    7.5740 N.am   77  ASP77      -0.1971
    110  CA        17.4090   20.8670    6.8580 C.3    77  ASP77       0.1709
    111  C         16.0620   21.1680    7.5460 C.2    77  ASP77       0.2293
    112  O         15.1310   20.3660    7.4360 O.2    77  ASP77      -0.2864
    113  CB        17.4510   19.3510    6.5390 C.3    77  ASP77       0.1436
    114  CG        18.8430   18.8390    6.1610 C.2    77  ASP77       0.3671
    115  OD1       19.5400   19.4930    5.3370 O.co2  77  ASP77      -0.2456
    116  OD2       19.2200   17.7520    6.6810 O.co2  77  ASP77      -0.2456
    117  N         15.4980   21.2120   10.7030 N.3    79  TRP79      -0.1227
    118  CA        15.4880   20.5170   12.0000 C.3    79  TRP79       0.1737
    119  C         15.9730   21.3640   13.1870 C.2    79  TRP79       0.2595
    120  O         17.0690   21.9440   13.1480 O.2    79  TRP79      -0.2718
    121  CB        16.3190   19.2480   11.9060 C.3    79  TRP79       0.0564
    122  CG        15.6890   18.1910   11.0820 C.ar   79  TRP79       0.0003
    123  CD1       15.9970   17.8600    9.7860 C.ar   79  TRP79       0.0946
    124  CD2       14.6410   17.3050   11.4850 C.ar   79  TRP79       0.0152
    125  NE1       15.1970   16.8240    9.3640 N.ar   79  TRP79      -0.2442
    126  CE2       14.3630   16.4580   10.3870 C.ar   79  TRP79       0.0810
    127  CE3       13.9020   17.1490   12.6670 C.ar   79  TRP79       0.0012
    128  CZ2       13.3710   15.4680   10.4350 C.ar   79  TRP79       0.0191
    129  CZ3       12.9360   16.1700   12.7220 C.ar   79  TRP79       0.0001
    130  CH2       12.6680   15.3430   11.6080 C.ar   79  TRP79       0.0015
    131  N         15.1450   21.4380   14.2300 N.am   80  TRP80      -0.1976
    132  CA        15.5290   22.0360   15.5450 C.3    80  TRP80       0.1640
    133  C         16.0720   23.4590   15.4440 C.2    80  TRP80       0.2290
    134  O         17.0160   23.8280   16.1320 O.2    80  TRP80      -0.2864
    135  CB        16.4820   21.0910   16.3330 C.3    80  TRP80       0.0576
    136  CG        15.9690   19.7040   16.2310 C.ar   80  TRP80       0.0006
    137  CD1       16.5750   18.6370   15.6140 C.ar   80  TRP80       0.0946
    138  CD2       14.6750   19.2450   16.6470 C.ar   80  TRP80       0.0152
    139  NE1       15.7460   17.5360   15.6400 N.ar   80  TRP80      -0.2442
    140  CE2       14.5720   17.8770   16.2650 C.ar   80  TRP80       0.0810
    141  CE3       13.5880   19.8540   17.3090 C.ar   80  TRP80       0.0012
    142  CZ2       13.4330   17.1050   16.5320 C.ar   80  TRP80       0.0191
    143  CZ3       12.4550   19.0830   17.5700 C.ar   80  TRP80       0.0001
    144  CH2       12.3900   17.7230   17.1780 C.ar   80  TRP80       0.0015
    145  N         16.5650    8.4490   18.3800 N.3    92  ASP92      -0.1225
    146  CA        15.6140    7.6460   17.6100 C.3    92  ASP92       0.1805
    147  C         16.0580    6.1940   17.7270 C.2    92  ASP92       0.2597
    148  O         17.2450    5.9220   17.8500 O.2    92  ASP92      -0.2718
    149  CB        15.6440    8.0200   16.1210 C.3    92  ASP92       0.1424
    150  CG        15.4240    9.4860   15.8810 C.2    92  ASP92       0.3668
    151  OD1       14.2610    9.9160   15.9690 O.co2  92  ASP92      -0.2456
    152  OD2       16.4080   10.2040   15.5660 O.co2  92  ASP92      -0.2456
    153  N         15.1240    5.2540   17.7050 N.am   93  GLN93      -0.1979
    154  CA        15.5070    3.8580   17.7960 C.3    93  GLN93       0.1601
    155  C         14.4210    2.9300   17.2590 C.2    93  GLN93       0.2287
    156  O         13.2820    3.3500   17.0690 O.2    93  GLN93      -0.2864
    157  CB        15.9440    3.4660   19.2240 C.3    93  GLN93       0.0394
    158  CG        14.8220    3.3670   20.2620 C.3    93  GLN93       0.0908
    159  CD        14.0710    4.6800   20.4330 C.2    93  GLN93       0.2608
    160  OE1       14.6730    5.7490   20.7090 O.2    93  GLN93      -0.2717
    161  NE2       12.7430    4.6130   20.2830 N.am   93  GLN93      -0.0878
    162  N         13.3370   13.6830   22.2950 N.3   128  THR128     -0.1203
    163  CA        12.8770   12.7500   21.2510 C.3   128  THR128      0.1994
    164  C         11.5660   13.2750   20.6610 C.2   128  THR128      0.2618
    165  O         10.9070   14.1200   21.2600 O.2   128  THR128     -0.2717
    166  CB        12.8100   11.2820   21.7550 C.3   128  THR128      0.1784
    167  OG1       12.6110   10.4070   20.6430 O.3   128  THR128     -0.2211
    168  CG2       11.7040   11.0710   22.7920 C.3   128  THR128      0.0376
    169  N         11.2080   12.8040   19.4680 N.am  129  ASP129     -0.1960
    170  CA        10.1020   13.4250   18.7370 C.3   129  ASP129      0.1825
    171  C          9.2400   12.3910   18.0050 C.2   129  ASP129      0.2464
    172  O          9.1210   12.4780   16.8090 O.2   129  ASP129     -0.2730
    173  CB        10.6480   14.4250   17.7120 C.3   129  ASP129      0.1450
    174  CG        11.5060   13.7660   16.6590 C.2   129  ASP129      0.3671
    175  OD1       12.1280   12.7110   16.9390 O.co2 129  ASP129     -0.2456
    176  OD2       11.5670   14.3040   15.5400 O.co2 129  ASP129     -0.2456
    177  N          8.6490   11.4220   18.7290 N.am  130  PRO130     -0.2727
    178  CA         7.8190   10.3890   18.0830 C.3   130  PRO130      0.1402
    179  C          6.6130   11.0630   17.4300 C.2   130  PRO130      0.2269
    180  O          6.2000   12.1320   17.8740 O.2   130  PRO130     -0.2865
    181  CB         7.3630    9.5100   19.2550 C.3   130  PRO130      0.0296
    182  CG         7.4960   10.3880   20.4740 C.3   130  PRO130      0.0237
    183  CD         8.6700   11.2680   20.1960 C.3   130  PRO130      0.0939
    184  N          2.1560    7.4580   16.8940 N.3   134  ASN134     -0.1240
    185  CA         2.9940    6.3930   17.4490 C.3   134  ASN134      0.1653
    186  C          2.9180    6.3360   18.9680 C.2   134  ASN134      0.2266
    187  O          3.9000    6.6390   19.6670 O.2   134  ASN134     -0.2867
    188  CB         4.4500    6.5820   16.9630 C.3   134  ASN134      0.1155
    189  CG         5.2940    5.3230   17.0900 C.2   134  ASN134      0.2627
    190  OD1        4.8800    4.3380   17.6840 O.2   134  ASN134     -0.2716
    191  ND2        6.5210    5.3820   16.5650 N.am  134  ASN134     -0.0877
    192  N          8.9460    5.8300   25.7120 N.3   141  TYR141     -0.1241
    193  CA         9.7580    6.9600   26.1510 C.3   141  TYR141      0.1605
    194  C          9.3690    7.4570   27.5510 C.2   141  TYR141      0.2264
    195  O         10.2300    7.7950   28.3390 O.2   141  TYR141     -0.2867
    196  CB         9.7520    8.1110   25.1370 C.3   141  TYR141      0.0534
    197  CG        10.5570    7.8460   23.8760 C.ar  141  TYR141     -0.0201
    198  CD1       11.9260    7.6030   23.9470 C.ar  141  TYR141     -0.0009
    199  CD2        9.9440    7.8630   22.6050 C.ar  141  TYR141     -0.0009
    200  CE1       12.6840    7.3520   22.7970 C.ar  141  TYR141      0.0417
    201  CE2       10.6840    7.6120   21.4470 C.ar  141  TYR141      0.0417
    202  CZ        12.0660    7.3570   21.5580 C.ar  141  TYR141      0.1957
    203  OH        12.8360    7.1270   20.4430 O.3   141  TYR141     -0.2866
    204  N          9.5790   16.1560    9.2790 N.3   156  ASP156     -0.1239
    205  CA         8.7500   14.9510    9.1720 C.3   156  ASP156      0.1674
    206  C          7.2810   15.1380    9.6810 C.2   156  ASP156      0.2266
    207  O          6.6320   14.1370   10.0660 O.2   156  ASP156     -0.2867
    208  CB         9.3750   13.7670    9.9450 C.3   156  ASP156      0.1410
    209  CG        10.6640   13.1990    9.3010 C.2   156  ASP156      0.3668
    210  OD1       10.9870   13.5200    8.1280 O.co2 156  ASP156     -0.2456
    211  OD2       11.3480   12.4070   10.0100 O.co2 156  ASP156     -0.2456
@<TRIPOS>BOND
     1    41    39   am
     2    39    38    1
     3    39    40    2
     4    38    37    1
     5    33    34    1
     6    37    34    1
     7    34    35    1
     8    32    31    2
     9   115   114   ar
    10    35    42   am
    11    35    36    2
    12    42    43    1
    13    31    30    1
    14   114   113    1
    15   114   116   ar
    16    70    68   ar
    17   113   110    1
    18    30    29    1
    19    49    51   ar
    20    49    47   ar
    21   110   111    1
    22   110   109    1
    23    51    52   ar
    24    43    44    1
    25    43    46    1
    26    44    45    2
    27   112   111    2
    28    46    47    1
    29    68    69   ar
    30    68    67    1
    31   109   107   am
    32    18    17    2
    33    47    48   ar
    34    29    17   am
    35   210   209   ar
    36    52    53    1
    37    52    50   ar
    38    67    66    1
    39    54    55    1
    40    17    16    1
    41   107   106    1
    42   107   108    2
    43    48    50   ar
    44   205   204    1
    45   205   206    1
    46   205   208    1
    47   209   208    1
    48   209   211   ar
    49   125   123   ar
    50   125   126   ar
    51   106   105    1
    52    55    58    1
    53    55    56    1
    54    61    59    1
    55    21    23   ar
    56    21    20   ar
    57    62    63    1
    58    59    58    1
    59    59    60    1
    60   206   207    2
    61    66    63    1
    62   123   122   ar
    63    16    15    1
    64    16    19    1
    65    63    64    1
    66    23    24   ar
    67    56    57    2
    68    15     3   am
    69   126   128   ar
    70   126   124   ar
    71   102   101    2
    72   128   130   ar
    73    19    20    1
    74    20    22   ar
    75   117   118    1
    76   105   101   am
    77     1     2    1
    78   122   124   ar
    79   122   121    1
    80   101   100    1
    81     3     2    1
    82     3     4    2
    83   124   127   ar
    84    24    22   ar
    85    24    26   ar
    86   130   129   ar
    87     2     5    1
    88    64    65    2
    89    22    25   ar
    90   121   118    1
    91   118   119    1
    92    26    28   ar
    93   127   129   ar
    94    77    75    1
    95   100   103    1
    96   100    99    1
    97    85    84    2
    98    75    76    1
    99    75    72    1
   100     5     6    1
   101   120   119    2
   102   119   131   am
   103   103   104    1
   104    25    27   ar
   105    74    73    2
   106    71    72    1
   107    11     8   ar
   108    11    13   ar
   109     6     8   ar
   110     6     7   ar
   111    86    84   am
   112    84    83    1
   113     8    10   ar
   114    28    27   ar
   115    13    14   ar
   116    72    73    1
   117     7     9   ar
   118   131   132    1
   119    10     9   ar
   120    10    12   ar
   121    14    12   ar
   122    83    82    1
   123    82    79    1
   124   133   132    1
   125   133   134    2
   126   176   174   ar
   127   132   135    1
   128   152   150   ar
   129   137   139   ar
   130   137   136   ar
   131   139   140   ar
   132   150   151   ar
   133   150   149    1
   134    91    92    1
   135    91    88    1
   136   149   146    1
   137   136   135    1
   138   136   138   ar
   139   140   142   ar
   140   140   138   ar
   141    92    94   ar
   142    92    93   ar
   143   142   144   ar
   144    94    96   ar
   145   191   189   am
   146   138   141   ar
   147   174   175   ar
   148   174   173    1
   149   172   171    2
   150    93    95   ar
   151    79    78    1
   152    79    80    1
   153   184   185    1
   154    96    97   ar
   155   188   189    1
   156   188   185    1
   157   156   155    2
   158   189   190    2
   159   144   143   ar
   160    95    97   ar
   161   155   154    1
   162    97    98    1
   163   141   143   ar
   164    88    89    1
   165    88    87    1
   166   179   180    2
   167   179   178    1
   168   185   186    1
   169   146   147    1
   170   146   145    1
   171   153   147   am
   172   153   154    1
   173   173   170    1
   174   147   148    2
   175   154   157    1
   176    80    81    2
   177   171   177   am
   178   171   170    1
   179   178   177    1
   180   178   181    1
   181    89    90    2
   182   177   183    1
   183   170   169    1
   184   186   187    2
   185   157   158    1
   186   181   182    1
   187   169   164   am
   188   183   182    1
   189   158   159    1
   190   161   159   am
   191   159   160    2
   192   203   202    1
   193   167   166    1
   194   164   163    1
   195   164   165    2
   196   163   166    1
   197   163   162    1
   198   201   202   ar
   199   201   199   ar
   200   202   200   ar
   201   166   168    1
   202   199   197   ar
   203   200   198   ar
   204   197   198   ar
   205   197   196    1
   206   196   193    1
   207   192   193    1
   208   193   194    1
   209   194   195    2
