@<TRIPOS>MOLECULE
tmp/1v0fC01.pdb
 79 79 0 0 0
SMALL
GASTEIGER

@<TRIPOS>ATOM
      1  N         11.7030   37.4010   64.9400 N.3   214  ASN214     -0.1225
      2  CA        12.5800   37.6690   66.0670 C.3   214  ASN214      0.1785
      3  C         12.2550   39.0540   66.6140 C.2   214  ASN214      0.2597
      4  O         11.9460   39.9650   65.8410 O.2   214  ASN214     -0.2718
      5  CB        14.0370   37.5350   65.5860 C.3   214  ASN214      0.1169
      6  CG        15.0880   38.0180   66.6190 C.2   214  ASN214      0.2627
      7  OD1       15.4980   39.1770   66.5990 O.2   214  ASN214     -0.2716
      8  ND2       15.5480   37.1100   67.4920 N.am  214  ASN214     -0.0877
      9  N         12.3060   39.2040   67.9330 N.am  215  PHE215     -0.1962
     10  CA        11.9070   40.4330   68.6070 C.3   215  PHE215      0.1771
     11  C         13.0000   40.9900   69.5070 C.2   215  PHE215      0.2620
     12  O         13.6870   40.2340   70.1550 O.2   215  PHE215     -0.2715
     13  CB        10.6590   40.1560   69.4450 C.3   215  PHE215      0.0574
     14  CG         9.4740   39.7150   68.6330 C.ar  215  PHE215     -0.0200
     15  CD1        8.6020   40.6660   68.0730 C.ar  215  PHE215     -0.0042
     16  CD2        9.2290   38.3560   68.4170 C.ar  215  PHE215     -0.0042
     17  CE1        7.4920   40.2590   67.3150 C.ar  215  PHE215     -0.0003
     18  CE2        8.1270   37.9380   67.6670 C.ar  215  PHE215     -0.0003
     19  CZ         7.2500   38.8840   67.1160 C.ar  215  PHE215     -0.0000
     20  N         13.1330   42.3130   69.5480 N.am  216  SER216     -0.1936
     21  CA        14.0370   42.9880   70.4750 C.3   216  SER216      0.2055
     22  C         13.4020   44.2550   71.0400 C.2   216  SER216      0.2643
     23  O         12.7900   45.0340   70.3050 O.2   216  SER216     -0.2714
     24  CB        15.3710   43.3510   69.8040 C.3   216  SER216      0.2130
     25  OG        15.9970   42.2380   69.1650 O.3   216  SER216     -0.2179
     26  N         13.5640   44.4530   72.3460 N.am  217  ASN217     -0.1957
     27  CA        13.1370   45.6760   73.0190 C.3   217  ASN217      0.1819
     28  C         11.6130   45.9050   72.8890 C.2   217  ASN217      0.2622
     29  O         11.1300   47.0550   72.8920 O.2   217  ASN217     -0.2715
     30  CB        13.9920   46.8860   72.5400 C.3   217  ASN217      0.1195
     31  CG        15.4950   46.5290   72.3530 C.2   217  ASN217      0.2630
     32  OD1       16.2600   46.4770   73.3080 O.2   217  ASN217     -0.2716
     33  ND2       15.8950   46.2680   71.1260 N.am  217  ASN217     -0.0877
     34  N         10.8690   44.7970   72.7880 N.am  218  SER218     -0.1936
     35  CA         9.4080   44.8330   72.6240 C.3   218  SER218      0.2055
     36  C          8.6580   45.5140   73.7630 C.2   218  SER218      0.2643
     37  O          7.6430   46.1640   73.5290 O.2   218  SER218     -0.2714
     38  CB         8.8720   43.4270   72.4090 C.3   218  SER218      0.2130
     39  OG         8.6950   42.7630   73.6380 O.3   218  SER218     -0.2179
     40  N          9.1850   45.3680   74.9800 N.am  219  ALA219     -0.1963
     41  CA         8.5630   45.8950   76.2110 C.3   219  ALA219      0.1728
     42  C          7.1870   45.2540   76.4980 C.2   219  ALA219      0.2616
     43  O          6.3420   45.8020   77.2110 O.2   219  ALA219     -0.2715
     44  CB         8.5020   47.4550   76.1960 C.3   219  ALA219      0.0334
     45  N          6.9920   44.0910   75.8930 N.am  220  VAL220     -0.1963
     46  CA         5.8470   43.2530   76.1400 C.3   220  VAL220      0.1727
     47  C          6.3480   41.8940   76.6020 C.2   220  VAL220      0.2617
     48  O          6.9030   41.1110   75.8040 O.2   220  VAL220     -0.2715
     49  CB         5.0650   43.0110   74.8870 C.3   220  VAL220      0.0290
     50  CG1        3.9680   41.9840   75.1720 C.3   220  VAL220      0.0023
     51  CG2        4.4970   44.3110   74.3890 C.3   220  VAL220      0.0023
     52  N          6.1460   41.6040   77.8860 N.am  221  THR221     -0.1937
     53  CA         6.6490   40.3480   78.4370 C.3   221  THR221      0.2028
     54  C          6.3230   39.1470   77.5540 C.2   221  THR221      0.2643
     55  O          5.1950   38.9700   77.0860 O.2   221  THR221     -0.2714
     56  CB         6.1610   40.1250   79.8600 C.3   221  THR221      0.1808
     57  OG1        6.6190   41.2110   80.6470 O.3   221  THR221     -0.2208
     58  CG2        6.8810   38.9380   80.5100 C.3   221  THR221      0.0379
     59  N          7.3370   38.3270   77.3330 N.am  222  GLY222     -0.1939
     60  CA         7.1830   37.1250   76.5570 C.3   222  GLY222      0.2014
     61  C          7.4810   37.3000   75.0840 C.2   222  GLY222      0.2639
     62  O          7.8230   36.3110   74.4190 O.2   222  GLY222     -0.2714
     63  N          7.3240   38.5210   74.5600 N.am  223  VAL223     -0.1963
     64  CA         7.5700   38.7360   73.1340 C.3   223  VAL223      0.1727
     65  C          9.0150   39.1460   72.9720 C.2   223  VAL223      0.2617
     66  O          9.3710   40.3000   73.1190 O.2   223  VAL223     -0.2715
     67  CB         6.6550   39.7430   72.5050 C.3   223  VAL223      0.0290
     68  CG1        6.8780   39.7300   71.0120 C.3   223  VAL223      0.0023
     69  CG2        5.2580   39.3930   72.8060 C.3   223  VAL223      0.0023
     70  N          9.8430   38.1720   72.6620 N.am  224  SER224     -0.1936
     71  CA        11.2560   38.2890   72.8630 C.3   224  SER224      0.2055
     72  C         11.9980   37.1700   72.1580 C.2   224  SER224      0.2643
     73  O         11.6400   36.0000   72.2960 O.2   224  SER224     -0.2714
     74  CB        11.5570   38.1370   74.3510 C.3   224  SER224      0.2130
     75  OG        12.9380   38.2550   74.6230 O.3   224  SER224     -0.2179
     76  N         13.0750   37.5230   71.4420 N.am  225  GLY225     -0.1954
     77  CA        13.9440   36.5360   70.8390 C.3   225  GLY225      0.1869
     78  C         13.3630   35.8590   69.6050 C.2   225  GLY225      0.2309
     79  O         12.5530   36.4280   68.8690 O.2   225  GLY225     -0.2863
@<TRIPOS>BOND
     1     1     2    1
     2     5     2    1
     3     5     6    1
     4     4     3    2
     5     2     3    1
     6     7     6    2
     7     3     9   am
     8     6     8   am
     9    19    17   ar
    10    19    18   ar
    11    17    15   ar
    12    18    16   ar
    13     9    10    1
    14    15    14   ar
    15    16    14   ar
    16    10    13    1
    17    10    11    1
    18    14    13    1
    19    79    78    2
    20    25    24    1
    21    11    20   am
    22    11    12    2
    23    20    21    1
    24    78    77    1
    25    24    21    1
    26    23    22    2
    27    21    22    1
    28    77    76    1
    29    68    67    1
    30    22    26   am
    31    33    31   am
    32    76    72   am
    33    72    73    2
    34    72    71    1
    35    26    27    1
    36    31    30    1
    37    31    32    2
    38    38    35    1
    39    38    39    1
    40    67    69    1
    41    67    64    1
    42    30    27    1
    43    35    34    1
    44    35    36    1
    45    70    71    1
    46    70    65   am
    47    34    28   am
    48    71    74    1
    49    28    29    2
    50    28    27    1
    51    65    66    2
    52    65    64    1
    53    64    63    1
    54    37    36    2
    55    36    40   am
    56    74    75    1
    57    51    49    1
    58    62    61    2
    59    63    61   am
    60    49    50    1
    61    49    46    1
    62    40    41    1
    63    61    60    1
    64    48    47    2
    65    45    46    1
    66    45    42   am
    67    46    47    1
    68    44    41    1
    69    41    42    1
    70    42    43    2
    71    60    59    1
    72    47    52   am
    73    55    54    2
    74    59    54   am
    75    54    53    1
    76    52    53    1
    77    53    56    1
    78    56    58    1
    79    56    57    1
