@<TRIPOS>MOLECULE
tmp/1v0hA01.pdb
 109 107 0 0 0
SMALL
GASTEIGER

@<TRIPOS>ATOM
      1  N         20.0250   58.5070   22.3350 N.3    38  ARG38      -0.1245
      2  CA        19.6060   58.7110   20.9400 C.3    38  ARG38       0.1563
      3  C         20.7320   59.2790   20.0830 C.2    38  ARG38       0.2260
      4  O         20.9650   58.8040   18.9730 O.2    38  ARG38      -0.2867
      5  CB        18.3500   59.5780   20.9050 C.3    38  ARG38       0.0307
      6  CG        17.7000   59.7610   19.5460 C.3    38  ARG38       0.0489
      7  CD        16.4780   60.6820   19.5800 C.3    38  ARG38       0.2205
      8  NE        16.0890   61.0310   18.2180 N.pl3  38  ARG38      -0.0865
      9  CZ        15.8980   62.2560   17.7710 C.cat  38  ARG38       0.5346
     10  NH1       16.0160   63.2990   18.5650 N.pl3  38  ARG38       0.1354
     11  NH2       15.5910   62.4290   16.4930 N.pl3  38  ARG38       0.1354
     12  N         23.3460   56.4310   19.4380 N.3    41  TRP41      -0.1227
     13  CA        22.7900   55.3760   18.5930 C.3    41  TRP41       0.1737
     14  C         22.6290   55.9080   17.1680 C.2    41  TRP41       0.2595
     15  O         22.9400   55.1980   16.2200 O.2    41  TRP41      -0.2718
     16  CB        21.5010   54.8040   19.2120 C.3    41  TRP41       0.0564
     17  CG        20.2920   54.6730   18.3410 C.ar   41  TRP41       0.0003
     18  CD1       19.1090   55.3090   18.5150 C.ar   41  TRP41       0.0946
     19  CD2       20.1150   53.8190   17.2060 C.ar   41  TRP41       0.0152
     20  NE1       18.2270   54.9610   17.5250 N.ar   41  TRP41      -0.2442
     21  CE2       18.8130   54.0360   16.7130 C.ar   41  TRP41       0.0810
     22  CE3       20.9240   52.9010   16.5520 C.ar   41  TRP41       0.0012
     23  CZ2       18.3090   53.3760   15.5950 C.ar   41  TRP41       0.0191
     24  CZ3       20.4110   52.2360   15.4340 C.ar   41  TRP41       0.0001
     25  CH2       19.1140   52.4700   14.9880 C.ar   41  TRP41       0.0015
     26  N         22.1900   57.1540   16.9950 N.am   42  HIS42      -0.1975
     27  CA        22.0470   57.7140   15.6390 C.3    42  HIS42       0.1656
     28  C         23.3900   57.9090   14.9500 C.2    42  HIS42       0.2291
     29  O         23.4970   57.7910   13.7210 O.2    42  HIS42      -0.2864
     30  CB        21.2690   59.0270   15.6710 C.3    42  HIS42       0.0771
     31  CG        19.8100   58.8340   15.8890 C.ar   42  HIS42       0.0820
     32  ND1       18.8470   59.4730   15.1460 N.ar   42  HIS42      -0.2267
     33  CD2       19.1460   58.0400   16.7610 C.ar   42  HIS42       0.1154
     34  CE1       17.6550   59.0650   15.5330 C.ar   42  HIS42       0.1986
     35  NE2       17.8060   58.1900   16.5130 N.ar   42  HIS42      -0.2212
     36  N         16.3230   64.1180    8.6930 N.3    69  SER69      -0.1202
     37  CA        15.0680   64.2000    9.4130 C.3    69  SER69       0.2020
     38  C         15.0210   63.2800   10.6410 C.2    69  SER69       0.2618
     39  O         14.4390   63.6480   11.6490 O.2    69  SER69      -0.2717
     40  CB        13.8780   63.9300    8.4830 C.3    69  SER69       0.2103
     41  OG        13.9710   62.6600    7.8890 O.3    69  SER69      -0.2182
     42  N         15.6560   62.1080   10.5620 N.am   70  ALA70      -0.1979
     43  CA        15.6710   61.1860   11.6890 C.3    70  ALA70       0.1597
     44  C         16.5180   61.7410   12.8330 C.2    70  ALA70       0.2287
     45  O         16.4500   61.2350   13.9520 O.2    70  ALA70      -0.2864
     46  CB        16.1830   59.8120   11.2620 C.3    70  ALA70       0.0319
     47  N         16.2970   65.0240   13.7820 N.3    72  ASN72      -0.1240
     48  CA        15.5960   66.1910   14.3200 C.3    72  ASN72       0.1653
     49  C         15.7760   66.2490   15.8350 C.2    72  ASN72       0.2266
     50  O         15.4000   65.3060   16.5200 O.2    72  ASN72      -0.2867
     51  CB        14.0840   66.0900   14.0140 C.3    72  ASN72       0.1155
     52  CG        13.6790   66.5880   12.6340 C.2    72  ASN72       0.2627
     53  OD1       12.4840   66.5260   12.2980 O.2    72  ASN72      -0.2716
     54  ND2       14.6310   67.0530   11.8260 N.am   72  ASN72      -0.0877
     55  N         18.8450   55.2450    8.9950 N.3   131  LEU131     -0.1231
     56  CA        18.2140   54.9880   10.2870 C.3   131  LEU131      0.1678
     57  C         16.7980   54.4880   10.0640 C.2   131  LEU131      0.2434
     58  O         16.1850   54.7980    9.0350 O.2   131  LEU131     -0.2733
     59  CB        18.2420   56.2430   11.1680 C.3   131  LEU131      0.0284
     60  CG        19.6490   56.6820   11.5680 C.3   131  LEU131      0.0019
     61  CD1       19.5340   57.9500   12.3720 C.3   131  LEU131      0.0001
     62  CD2       20.3980   55.6320   12.3750 C.3   131  LEU131      0.0001
     63  N         16.2840   53.6720   10.9810 N.am  132  PRO132     -0.2718
     64  CA        14.9930   53.0080   10.7740 C.3   132  PRO132      0.1535
     65  C         13.7860   53.9380   10.8370 C.2   132  PRO132      0.2599
     66  O         13.7400   54.8950   11.6080 O.2   132  PRO132     -0.2715
     67  CB        14.9370   51.9750   11.9030 C.3   132  PRO132      0.0310
     68  CG        15.8540   52.5330   12.9800 C.3   132  PRO132      0.0237
     69  CD        16.9030   53.2910   12.2630 C.3   132  PRO132      0.0939
     70  N         12.7720   53.5680   10.0560 N.am  133  ASP133     -0.1958
     71  CA        11.5510   54.3080    9.8170 C.3   133  ASP133      0.1840
     72  C         10.5120   53.7350   10.7830 C.2   133  ASP133      0.2621
     73  O         10.2200   52.5300   10.7750 O.2   133  ASP133     -0.2715
     74  CB        11.1430   54.0800    8.3480 C.3   133  ASP133      0.1450
     75  CG         9.8620   54.7970    7.9350 C.2   133  ASP133      0.3671
     76  OD1        8.9860   55.0790    8.7520 O.co2 133  ASP133     -0.2456
     77  OD2        9.6460   55.0690    6.7270 O.co2 133  ASP133     -0.2456
     78  N          9.9570   54.5990   11.6160 N.am  134  ALA134     -0.1977
     79  CA         9.0470   54.1870   12.6640 C.3   134  ALA134      0.1597
     80  C          7.7230   53.6060   12.1610 C.2   134  ALA134      0.2287
     81  O          7.0090   52.9580   12.9090 O.2   134  ALA134     -0.2864
     82  CB         8.7640   55.3650   13.5840 C.3   134  ALA134      0.0319
     83  N         14.0450   52.3350   24.0550 N.3   163  HIS163     -0.1241
     84  CA        12.8690   53.1790   24.2230 C.3   163  HIS163      0.1621
     85  C         12.2970   53.0600   25.6440 C.2   163  HIS163      0.2264
     86  O         11.3380   53.7430   25.9910 O.2   163  HIS163     -0.2867
     87  CB        11.8000   52.8120   23.1920 C.3   163  HIS163      0.0745
     88  CG        12.1260   53.2560   21.8000 C.ar  163  HIS163      0.0817
     89  ND1       11.8690   52.4790   20.6910 N.ar  163  HIS163     -0.2268
     90  CD2       12.6890   54.3960   21.3360 C.ar  163  HIS163      0.1154
     91  CE1       12.2580   53.1190   19.6040 C.ar  163  HIS163      0.1986
     92  NE2       12.7590   54.2870   19.9670 N.ar  163  HIS163     -0.2212
     93  N          9.5560   66.8670   16.5480 N.3   172  ARG172     -0.1231
     94  CA        10.7410   66.1780   16.0650 C.3   172  ARG172      0.1694
     95  C         10.2810   65.0890   15.0910 C.2   172  ARG172      0.2592
     96  O         10.2250   65.3580   13.9030 O.2   172  ARG172     -0.2718
     97  CB        11.5810   65.6400   17.2280 C.3   172  ARG172      0.0321
     98  CG        12.1520   66.7440   18.0970 C.3   172  ARG172      0.0489
     99  CD        13.0170   66.2500   19.2450 C.3   172  ARG172      0.2205
    100  NE        13.3420   67.3670   20.1160 N.pl3 172  ARG172     -0.0865
    101  CZ        13.8270   67.2650   21.3390 C.cat 172  ARG172      0.5346
    102  NH1       14.1410   66.0930   21.8530 N.pl3 172  ARG172      0.1354
    103  NH2       14.0270   68.3740   22.0390 N.pl3 172  ARG172      0.1354
    104  N          9.9170   63.8970   15.5670 N.am  173  SER173     -0.1952
    105  CA         9.4380   62.8520   14.6620 C.3   173  SER173      0.1924
    106  C          7.9850   63.1010   14.2720 C.2   173  SER173      0.2314
    107  O          7.5980   62.7750   13.1650 O.2   173  SER173     -0.2863
    108  CB         9.5660   61.4690   15.2940 C.3   173  SER173      0.2116
    109  OG         8.7690   61.3280   16.4420 O.3   173  SER173     -0.2180
@<TRIPOS>BOND
     1    77    75   ar
     2    41    40    1
     3    75    74    1
     4    75    76   ar
     5    74    71    1
     6    40    37    1
     7    36    37    1
     8    55    56    1
     9    58    57    2
    10    37    38    1
    11    71    70    1
    12    71    72    1
    13    70    65   am
    14    57    56    1
    15    57    63   am
    16    56    59    1
    17    42    38   am
    18    42    43    1
    19    38    39    2
    20    64    65    1
    21    64    63    1
    22    64    67    1
    23    73    72    2
    24    72    78   am
    25    65    66    2
    26    63    69    1
    27    59    60    1
    28    46    43    1
    29    60    61    1
    30    60    62    1
    31    78    79    1
    32    43    44    1
    33    54    52   am
    34    67    68    1
    35    80    79    1
    36    80    81    2
    37    69    68    1
    38    53    52    2
    39    52    51    1
    40    79    82    1
    41    44    45    2
    42   107   106    2
    43    29    28    2
    44    47    48    1
    45    96    95    2
    46    51    48    1
    47   106   105    1
    48    48    49    1
    49   105   108    1
    50   105   104    1
    51    28    27    1
    52    25    24   ar
    53    25    23   ar
    54    95   104   am
    55    95    94    1
    56    32    34   ar
    57    32    31   ar
    58   108   109    1
    59    24    22   ar
    60    34    35   ar
    61    23    21   ar
    62    27    30    1
    63    27    26    1
    64    30    31    1
    65    49    50    2
    66    31    33   ar
    67    94    93    1
    68    94    97    1
    69    15    14    2
    70    11     9    1
    71    35    33   ar
    72    22    19   ar
    73    21    19   ar
    74    21    20   ar
    75    26    14   am
    76    14    13    1
    77    19    17   ar
    78    97    98    1
    79    20    18   ar
    80     9     8    2
    81     9    10    1
    82    98    99    1
    83     8     7    1
    84    17    18   ar
    85    17    16    1
    86    13    16    1
    87    13    12    1
    88     4     3    2
    89    99   100    1
    90     6     7    1
    91     6     5    1
    92    91    92   ar
    93    91    89   ar
    94    92    90   ar
    95     3     2    1
    96   100   101    2
    97    89    88   ar
    98     5     2    1
    99     2     1    1
   100    90    88   ar
   101   101   102    1
   102   101   103    1
   103    88    87    1
   104    87    84    1
   105    83    84    1
   106    84    85    1
   107    85    86    2
