@<TRIPOS>MOLECULE
tmp/1v0kA00.pdb
 144 141 0 0 0
SMALL
GASTEIGER

@<TRIPOS>ATOM
      1  N         10.4160    9.2690   21.2100 N.3    43  GLU43      -0.1231
      2  CA         9.7460   10.0460   20.1770 C.3    43  GLU43       0.1699
      3  C          8.8290   11.1210   20.7940 C.2    43  GLU43       0.2592
      4  O          8.7330   12.2140   20.2560 O.2    43  GLU43      -0.2718
      5  CB         8.9070    9.1210   19.2770 C.3    43  GLU43       0.0402
      6  CG         8.4320    9.8410   18.0290 C.3    43  GLU43       0.1161
      7  CD         7.6970    8.9510   17.0560 C.2    43  GLU43       0.3649
      8  OE1        7.4270    7.7790   17.3960 O.co2  43  GLU43      -0.2457
      9  OE2        7.4040    9.4290   15.9280 O.co2  43  GLU43      -0.2457
     10  N          8.1820   10.7920   21.9120 N.am   44  ASN44      -0.1974
     11  CA         7.1920   11.6780   22.5430 C.3    44  ASN44       0.1688
     12  C          7.3180   11.7930   24.0590 C.2    44  ASN44       0.2292
     13  O          6.9130   12.8060   24.6500 O.2    44  ASN44      -0.2864
     14  CB         5.7660   11.2080   22.2250 C.3    44  ASN44       0.1181
     15  CG         5.4890   11.2090   20.7540 C.2    44  ASN44       0.2629
     16  OD1        5.5700   12.2510   20.1100 O.2    44  ASN44      -0.2716
     17  ND2        5.1800   10.0340   20.2010 N.am   44  ASN44      -0.0877
     18  N          8.8060   14.7120   26.2220 N.3    47  LYS47      -0.1245
     19  CA         8.3580   16.0670   25.9370 C.3    47  LYS47       0.1561
     20  C          7.6690   16.6590   27.1680 C.2    47  LYS47       0.2260
     21  O          7.4420   15.9740   28.1810 O.2    47  LYS47      -0.2867
     22  CB         7.5050   16.0650   24.6820 C.3    47  LYS47       0.0271
     23  CG         8.3750   15.7730   23.4540 C.3    47  LYS47       0.0035
     24  CD         7.5600   15.5350   22.2040 C.3    47  LYS47       0.0206
     25  CE         8.4120   15.2740   20.9850 C.3    47  LYS47       0.1093
     26  NZ         7.6130   14.9590   19.7470 N.3    47  LYS47      -0.1314
     27  N         14.8230   14.3900   24.7990 N.3    80  HIS80      -0.1241
     28  CA        14.1160   15.2480   23.8500 C.3    80  HIS80       0.1621
     29  C         12.7490   15.5300   24.4150 C.2    80  HIS80       0.2264
     30  O         11.9550   14.6030   24.5600 O.2    80  HIS80      -0.2867
     31  CB        14.0050   14.4750   22.5200 C.3    80  HIS80       0.0745
     32  CG        13.3150   15.2220   21.4480 C.ar   80  HIS80       0.0817
     33  ND1       13.8950   16.2420   20.7170 N.ar   80  HIS80      -0.2268
     34  CD2       12.0650   15.0830   20.9730 C.ar   80  HIS80       0.1154
     35  CE1       13.0210   16.6810   19.8320 C.ar   80  HIS80       0.1986
     36  NE2       11.8900   16.0160   19.9720 N.ar   80  HIS80      -0.2212
     37  N         10.2140   24.1810   24.5140 N.3    84  TRP84      -0.1241
     38  CA         9.6970   24.1040   23.1230 C.3    84  TRP84       0.1605
     39  C          8.3200   24.7110   23.0980 C.2    84  TRP84       0.2264
     40  O          7.5320   24.5690   24.0480 O.2    84  TRP84      -0.2867
     41  CB         9.5920   22.6250   22.7240 C.3    84  TRP84       0.0550
     42  CG         9.3080   22.2950   21.2970 C.ar   84  TRP84       0.0003
     43  CD1        9.5120   23.0420   20.1750 C.ar   84  TRP84       0.0946
     44  CD2        8.8230   21.0390   20.8390 C.ar   84  TRP84       0.0152
     45  NE1        9.1700   22.3250   19.0490 N.ar   84  TRP84      -0.2442
     46  CE2        8.7560   21.0820   19.4290 C.ar   84  TRP84       0.0810
     47  CE3        8.4170   19.8870   21.4840 C.ar   84  TRP84       0.0012
     48  CZ2        8.3100   20.0030   18.6700 C.ar   84  TRP84       0.0191
     49  CZ3        7.9760   18.8240   20.7240 C.ar   84  TRP84       0.0001
     50  CH2        7.9400   18.8820   19.3450 C.ar   84  TRP84       0.0015
     51  N          3.7400   20.8890   21.7410 N.3    87  GLN87      -0.1245
     52  CA         3.4580   19.8380   22.6960 C.3    87  GLN87       0.1566
     53  C          3.5690   20.3150   24.1610 C.2    87  GLN87       0.2260
     54  O          3.8970   19.5420   25.0590 O.2    87  GLN87      -0.2867
     55  CB         4.2590   18.5520   22.3530 C.3    87  GLN87       0.0367
     56  CG         3.6730   17.9190   21.0650 C.3    87  GLN87       0.0905
     57  CD         4.4570   16.7260   20.6040 C.2    87  GLN87       0.2608
     58  OE1        5.4210   16.8370   19.8450 O.2    87  GLN87      -0.2717
     59  NE2        4.1060   15.5450   21.1150 N.am   87  GLN87      -0.0878
     60  N         14.2460   23.4820   21.5050 N.3   126  ASN126     -0.1225
     61  CA        13.8800   22.9970   20.1840 C.3   126  ASN126      0.1785
     62  C         13.1570   24.1020   19.4020 C.2   126  ASN126      0.2597
     63  O         12.2330   24.7320   19.9280 O.2   126  ASN126     -0.2718
     64  CB        12.9420   21.7840   20.3720 C.3   126  ASN126      0.1169
     65  CG        12.9060   20.8240   19.1900 C.2   126  ASN126      0.2627
     66  OD1       13.8870   20.6800   18.4550 O.2   126  ASN126     -0.2716
     67  ND2       11.7820   20.1440   19.0250 N.am  126  ASN126     -0.0877
     68  N         13.5220   24.2550   18.1260 N.am  127  GLU127     -0.1979
     69  CA        12.6780   24.9490   17.1240 C.3   127  GLU127      0.1602
     70  C         12.3560   26.4080   17.4830 C.2   127  GLU127      0.2287
     71  O         11.2290   26.8550   17.3510 O.2   127  GLU127     -0.2864
     72  CB        11.4080   24.1570   16.8520 C.3   127  GLU127      0.0415
     73  CG        11.6940   22.7810   16.2810 C.3   127  GLU127      0.1163
     74  CD        10.4550   22.0280   15.8870 C.2   127  GLU127      0.3649
     75  OE1        9.3230   22.4890   16.1760 O.co2 127  GLU127     -0.2457
     76  OE2       10.6120   20.9360   15.3010 O.co2 127  GLU127     -0.2457
     77  N         15.0620   22.3780   12.6660 N.3   171  TYR171     -0.1241
     78  CA        14.9400   21.8770   11.2980 C.3   171  TYR171      0.1605
     79  C         15.0520   23.0400   10.3070 C.2   171  TYR171      0.2264
     80  O         14.9480   24.2300   10.6730 O.2   171  TYR171     -0.2867
     81  CB        13.5890   21.1650   11.1010 C.3   171  TYR171      0.0534
     82  CG        12.4130   22.1010   11.1780 C.ar  171  TYR171     -0.0201
     83  CD1       11.8150   22.4210   12.3830 C.ar  171  TYR171     -0.0009
     84  CD2       11.8970   22.6840   10.0210 C.ar  171  TYR171     -0.0009
     85  CE1       10.7320   23.2960   12.4340 C.ar  171  TYR171      0.0417
     86  CE2       10.8150   23.5490   10.0770 C.ar  171  TYR171      0.0417
     87  CZ        10.2550   23.8880   11.2810 C.ar  171  TYR171      0.1957
     88  OH         9.2090   24.7860   11.3790 O.3   171  TYR171     -0.2866
     89  N         17.8930   18.4840   12.6720 N.3   204  GLN204     -0.1245
     90  CA        16.8420   17.4750   12.5830 C.3   204  GLN204      0.1566
     91  C         16.9540   16.6860   11.2860 C.2   204  GLN204      0.2260
     92  O         16.7180   15.4780   11.2910 O.2   204  GLN204     -0.2867
     93  CB        15.4560   18.0900   12.7050 C.3   204  GLN204      0.0367
     94  CG        15.1260   18.5810   14.1030 C.3   204  GLN204      0.0905
     95  CD        13.7200   19.1110   14.1950 C.2   204  GLN204      0.2608
     96  OE1       12.8740   18.8530   13.3310 O.2   204  GLN204     -0.2717
     97  NE2       13.4390   19.9180   15.2410 N.am  204  GLN204     -0.0878
     98  N         15.1620   16.6360    8.4150 N.3   206  HIS206     -0.1241
     99  CA        13.9430   16.1910    7.7590 C.3   206  HIS206      0.1621
    100  C         13.9470   16.6650    6.3050 C.2   206  HIS206      0.2264
    101  O         13.3750   17.7210    5.9630 O.2   206  HIS206     -0.2867
    102  CB        12.7040   16.7260    8.4720 C.3   206  HIS206      0.0745
    103  CG        12.5090   16.1480    9.8370 C.ar  206  HIS206      0.0817
    104  ND1       12.3050   14.8010   10.0220 N.ar  206  HIS206     -0.2268
    105  CD2       12.5240   16.7160   11.0740 C.ar  206  HIS206      0.1154
    106  CE1       12.2270   14.5640   11.3190 C.ar  206  HIS206      0.1986
    107  NE2       12.3520   15.7050   11.9790 N.ar  206  HIS206     -0.2212
    108  N         17.1670   13.7400   13.6660 N.3   235  GLU235     -0.1245
    109  CA        15.8330   13.2460   13.3100 C.3   235  GLU235      0.1567
    110  C         15.7340   12.9090   11.8100 C.2   235  GLU235      0.2260
    111  O         14.7360   13.1590   11.1590 O.2   235  GLU235     -0.2867
    112  CB        14.7310   14.2290   13.6940 C.3   235  GLU235      0.0388
    113  CG        14.8090   14.7440   15.1140 C.3   235  GLU235      0.1160
    114  CD        13.6890   15.6800   15.4830 C.2   235  GLU235      0.3649
    115  OE1       12.7330   15.8160   14.7380 O.co2 235  GLU235     -0.2457
    116  OE2       13.8110   16.3120   16.6230 O.co2 235  GLU235     -0.2457
    117  N         14.5810    9.1030   12.3140 N.3   265  TRP265     -0.1241
    118  CA        13.3800    9.3820   13.0880 C.3   265  TRP265      0.1605
    119  C         12.3510    8.2440   12.9410 C.2   265  TRP265      0.2264
    120  O         11.2140    8.4060   12.4910 O.2   265  TRP265     -0.2867
    121  CB        12.8150   10.7540   12.7360 C.3   265  TRP265      0.0550
    122  CG        11.9880   11.3320   13.8450 C.ar  265  TRP265      0.0003
    123  CD1       10.6680   11.6420   13.8060 C.ar  265  TRP265      0.0946
    124  CD2       12.4150   11.6120   15.1990 C.ar  265  TRP265      0.0152
    125  NE1       10.2420   12.1450   15.0140 N.ar  265  TRP265     -0.2442
    126  CE2       11.2850   12.1080   15.8920 C.ar  265  TRP265      0.0810
    127  CE3       13.6390   11.5030   15.8810 C.ar  265  TRP265      0.0012
    128  CZ2       11.3330   12.4810   17.2480 C.ar  265  TRP265      0.0191
    129  CZ3       13.6840   11.8780   17.2340 C.ar  265  TRP265      0.0001
    130  CH2       12.5420   12.3650   17.8770 C.ar  265  TRP265      0.0015
    131  N          6.3990    9.3090   11.4810 N.3   273  TRP273     -0.1241
    132  CA         5.4210   10.4030   11.5280 C.3   273  TRP273      0.1605
    133  C          5.0250   10.8890   10.1290 C.2   273  TRP273      0.2264
    134  O          4.0290   11.5890   10.0000 O.2   273  TRP273     -0.2867
    135  CB         5.9850   11.5670   12.3380 C.3   273  TRP273      0.0550
    136  CG         7.1080   12.3460   11.7120 C.ar  273  TRP273      0.0003
    137  CD1        8.2190   11.8740   11.0890 C.ar  273  TRP273      0.0946
    138  CD2        7.2080   13.7690   11.6730 C.ar  273  TRP273      0.0152
    139  NE1        9.0150   12.9130   10.6540 N.ar  273  TRP273     -0.2442
    140  CE2        8.4020   14.0890   11.0180 C.ar  273  TRP273      0.0810
    141  CE3        6.3940   14.8090   12.1390 C.ar  273  TRP273      0.0012
    142  CZ2        8.8090   15.4100   10.8310 C.ar  273  TRP273      0.0191
    143  CZ3        6.7900   16.1190   11.9260 C.ar  273  TRP273      0.0001
    144  CH2        7.9800   16.4040   11.2910 C.ar  273  TRP273      0.0015
@<TRIPOS>BOND
     1   101   100    2
     2   100    99    1
     3    99    98    1
     4    99   102    1
     5   102   103    1
     6   103   104   ar
     7   103   105   ar
     8   134   133    2
     9    84    86   ar
    10    84    82   ar
    11   104   106   ar
    12    86    87   ar
    13   133   132    1
    14    79    80    2
    15    79    78    1
    16   139   140   ar
    17   139   137   ar
    18   142   140   ar
    19   142   144   ar
    20   140   138   ar
    21   105   107   ar
    22   137   136   ar
    23    81    82    1
    24    81    78    1
    25   111   110    2
    26    82    83   ar
    27    87    88    1
    28    87    85   ar
    29    91    92    2
    30    91    90    1
    31   144   143   ar
    32    78    77    1
    33   106   107   ar
    34   131   132    1
    35   132   135    1
    36   138   136   ar
    37   138   141   ar
    38   136   135    1
    39   110   109    1
    40   143   141   ar
    41   117   118    1
    42    83    85   ar
    43   120   119    2
    44    90    89    1
    45    90    93    1
    46    93    94    1
    47   121   118    1
    48   121   122    1
    49   119   118    1
    50   109   108    1
    51   109   112    1
    52    96    95    2
    53   112   113    1
    54   123   122   ar
    55   123   125   ar
    56   122   124   ar
    57    94    95    1
    58    95    97   am
    59   115   114   ar
    60   125   126   ar
    61   113   114    1
    62   124   127   ar
    63   124   126   ar
    64    76    74   ar
    65   114   116   ar
    66   127   129   ar
    67    74    75   ar
    68    74    73    1
    69   126   128   ar
    70     9     7   ar
    71    73    72    1
    72    72    69    1
    73     7     8   ar
    74     7     6    1
    75    69    70    1
    76    69    68    1
    77   129   130   ar
    78   128   130   ar
    79    71    70    2
    80     6     5    1
    81    68    62   am
    82    66    65    2
    83    48    50   ar
    84    48    46   ar
    85    67    65   am
    86    45    46   ar
    87    45    43   ar
    88    65    64    1
    89     5     2    1
    90    50    49   ar
    91    62    63    2
    92    62    61    1
    93    46    44   ar
    94    26    25    1
    95    35    36   ar
    96    35    33   ar
    97    58    57    2
    98    36    34   ar
    99    16    15    2
   100    43    42   ar
   101     2     3    1
   102     2     1    1
   103    61    64    1
   104    61    60    1
   105    17    15   am
   106     4     3    2
   107    57    56    1
   108    57    59   am
   109    33    32   ar
   110    49    47   ar
   111    15    14    1
   112     3    10   am
   113    44    42   ar
   114    44    47   ar
   115    34    32   ar
   116    25    24    1
   117    56    55    1
   118    42    41    1
   119    32    31    1
   120    51    52    1
   121    10    11    1
   122    24    23    1
   123    14    11    1
   124    55    52    1
   125    31    28    1
   126    11    12    1
   127    52    53    1
   128    41    38    1
   129    39    38    1
   130    39    40    2
   131    38    37    1
   132    23    22    1
   133    28    29    1
   134    28    27    1
   135    12    13    2
   136    53    54    2
   137    29    30    2
   138    22    19    1
   139    19    18    1
   140    19    20    1
   141    20    21    2
