@<TRIPOS>MOLECULE
tmp/1v0lA00.pdb
 144 141 0 0 0
SMALL
GASTEIGER

@<TRIPOS>ATOM
      1  N         10.4800    9.0650   20.5520 N.3    43  GLU43      -0.1231
      2  CA         9.7540    9.8250   19.5350 C.3    43  GLU43       0.1699
      3  C          8.8720   10.9140   20.1520 C.2    43  GLU43       0.2592
      4  O          8.7040   11.9840   19.5590 O.2    43  GLU43      -0.2718
      5  CB         8.9310    8.8870   18.6410 C.3    43  GLU43       0.0402
      6  CG         8.4120    9.6000   17.4030 C.3    43  GLU43       0.1161
      7  CD         7.6300    8.6950   16.4790 C.2    43  GLU43       0.3649
      8  OE1        7.2890    7.5470   16.8790 O.co2  43  GLU43      -0.2457
      9  OE2        7.2680    9.1690   15.3620 O.co2  43  GLU43      -0.2457
     10  N          8.2470   10.5830   21.2900 N.am   44  ASN44      -0.1974
     11  CA         7.3080   11.5090   21.9500 C.3    44  ASN44       0.1688
     12  C          7.4300   11.5540   23.4740 C.2    44  ASN44       0.2292
     13  O          6.9620   12.5030   24.0910 O.2    44  ASN44      -0.2864
     14  CB         5.8670   11.1970   21.5740 C.3    44  ASN44       0.1181
     15  CG         5.5670   11.5590   20.1220 C.2    44  ASN44       0.2629
     16  OD1        5.5630   12.7630   19.7760 O.2    44  ASN44      -0.2716
     17  ND2        5.3430   10.5690   19.2770 N.am   44  ASN44      -0.0877
     18  N          9.0220   14.5010   25.6110 N.3    47  LYS47      -0.1245
     19  CA         8.5600   15.8370   25.3400 C.3    47  LYS47       0.1561
     20  C          7.8890   16.4260   26.5790 C.2    47  LYS47       0.2260
     21  O          7.6770   15.7360   27.5810 O.2    47  LYS47      -0.2867
     22  CB         7.6540   15.8540   24.1270 C.3    47  LYS47       0.0271
     23  CG         8.3920   15.5090   22.8340 C.3    47  LYS47       0.0035
     24  CD         7.5040   15.2950   21.6580 C.3    47  LYS47       0.0206
     25  CE         8.3590   15.0380   20.4070 C.3    47  LYS47       0.1093
     26  NZ         7.5290   14.7350   19.2090 N.3    47  LYS47      -0.1314
     27  N         15.0290   14.1930   23.9510 N.3    80  HIS80      -0.1241
     28  CA        14.3020   15.0610   23.0290 C.3    80  HIS80       0.1621
     29  C         12.9110   15.3120   23.6250 C.2    80  HIS80       0.2264
     30  O         12.1670   14.3500   23.7830 O.2    80  HIS80      -0.2867
     31  CB        14.1760   14.3430   21.6820 C.3    80  HIS80       0.0745
     32  CG        13.4140   15.1170   20.6540 C.ar   80  HIS80       0.0817
     33  ND1       13.9560   16.1320   19.8950 N.ar   80  HIS80      -0.2268
     34  CD2       12.1250   15.0060   20.2530 C.ar   80  HIS80       0.1154
     35  CE1       13.0010   16.6040   19.0830 C.ar   80  HIS80       0.1986
     36  NE2       11.8740   15.9370   19.2660 N.ar   80  HIS80      -0.2212
     37  N         10.3230   23.8570   23.6310 N.3    84  TRP84      -0.1241
     38  CA         9.8020   23.7600   22.2740 C.3    84  TRP84       0.1605
     39  C          8.3950   24.3660   22.2680 C.2    84  TRP84       0.2264
     40  O          7.6580   24.2340   23.2480 O.2    84  TRP84      -0.2867
     41  CB         9.7020   22.2540   21.8540 C.3    84  TRP84       0.0550
     42  CG         9.3340   21.9480   20.4470 C.ar   84  TRP84       0.0003
     43  CD1        9.5270   22.7150   19.3200 C.ar   84  TRP84       0.0946
     44  CD2        8.7830   20.7220   19.9940 C.ar   84  TRP84       0.0152
     45  NE1        9.1120   22.0250   18.2050 N.ar   84  TRP84      -0.2442
     46  CE2        8.6620   20.7940   18.5740 C.ar   84  TRP84       0.0810
     47  CE3        8.3590   19.5610   20.6340 C.ar   84  TRP84       0.0012
     48  CZ2        8.1650   19.7500   17.8060 C.ar   84  TRP84       0.0191
     49  CZ3        7.8480   18.5440   19.8570 C.ar   84  TRP84       0.0001
     50  CH2        7.7700   18.6350   18.4700 C.ar   84  TRP84       0.0015
     51  N          3.7200   20.5640   21.2910 N.3    87  GLN87      -0.1245
     52  CA         3.5160   19.4830   22.2560 C.3    87  GLN87       0.1566
     53  C          3.7880   19.9630   23.6820 C.2    87  GLN87       0.2260
     54  O          4.2190   19.1960   24.5590 O.2    87  GLN87      -0.2867
     55  CB         4.2350   18.1860   21.8820 C.3    87  GLN87       0.0367
     56  CG         3.5560   17.5580   20.6630 C.3    87  GLN87       0.0905
     57  CD         4.3280   16.3370   20.1560 C.2    87  GLN87       0.2608
     58  OE1        5.2440   16.4730   19.3330 O.2    87  GLN87      -0.2717
     59  NE2        4.0290   15.1670   20.6750 N.am   87  GLN87      -0.0878
     60  N         14.3610   23.2910   20.6160 N.3   126  ASN126     -0.1225
     61  CA        13.9700   22.7790   19.3180 C.3   126  ASN126      0.1785
     62  C         13.1960   23.8390   18.5520 C.2   126  ASN126      0.2597
     63  O         12.2940   24.4710   19.0880 O.2   126  ASN126     -0.2718
     64  CB        13.0910   21.5520   19.5850 C.3   126  ASN126      0.1169
     65  CG        12.9130   20.6650   18.3790 C.2   126  ASN126      0.2627
     66  OD1       13.8550   20.4260   17.6250 O.2   126  ASN126     -0.2716
     67  ND2       11.6930   20.1860   18.1690 N.am  126  ASN126     -0.0877
     68  N         13.5440   23.9880   17.2600 N.am  127  GLU127     -0.1979
     69  CA        12.6570   24.6500   16.2680 C.3   127  GLU127      0.1602
     70  C         12.3310   26.1090   16.6230 C.2   127  GLU127      0.2287
     71  O         11.1850   26.5440   16.5190 O.2   127  GLU127     -0.2864
     72  CB        11.4040   23.8280   16.0160 C.3   127  GLU127      0.0415
     73  CG        11.7290   22.4830   15.4330 C.3   127  GLU127      0.1163
     74  CD        10.5290   21.5730   15.2110 C.2   127  GLU127      0.3649
     75  OE1        9.3880   22.0300   15.3210 O.co2 127  GLU127     -0.2457
     76  OE2       10.7720   20.3480   14.9540 O.co2 127  GLU127     -0.2457
     77  N         14.9330   22.1170   11.7830 N.3   171  TYR171     -0.1241
     78  CA        14.7330   21.6010   10.4330 C.3   171  TYR171      0.1605
     79  C         14.8220   22.7620    9.4400 C.2   171  TYR171      0.2264
     80  O         14.7280   23.9370    9.7950 O.2   171  TYR171     -0.2867
     81  CB        13.3890   20.8680   10.2810 C.3   171  TYR171      0.0534
     82  CG        12.1890   21.7840   10.3970 C.ar  171  TYR171     -0.0201
     83  CD1       11.6070   22.0770   11.6170 C.ar  171  TYR171     -0.0009
     84  CD2       11.6270   22.3640    9.2520 C.ar  171  TYR171     -0.0009
     85  CE1       10.5370   22.9580   11.7040 C.ar  171  TYR171      0.0417
     86  CE2       10.5750   23.2290    9.3320 C.ar  171  TYR171      0.0417
     87  CZ        10.0360   23.5450   10.5580 C.ar  171  TYR171      0.1957
     88  OH         8.9740   24.4190   10.6820 O.3   171  TYR171     -0.2866
     89  N         17.7290   18.2210   11.6840 N.3   204  GLN204     -0.1245
     90  CA        16.6870   17.1970   11.6350 C.3   204  GLN204      0.1566
     91  C         16.7230   16.4220   10.3210 C.2   204  GLN204      0.2260
     92  O         16.4660   15.2230   10.3290 O.2   204  GLN204     -0.2867
     93  CB        15.3040   17.8230   11.8400 C.3   204  GLN204      0.0367
     94  CG        15.0870   18.2850   13.2530 C.3   204  GLN204      0.0905
     95  CD        13.6730   18.8660   13.4610 C.2   204  GLN204      0.2608
     96  OE1       12.7540   18.6260   12.6680 O.2   204  GLN204     -0.2717
     97  NE2       13.5130   19.6200   14.5330 N.am  204  GLN204     -0.0878
     98  N         14.7760   16.4410    7.5230 N.3   206  HIS206     -0.1241
     99  CA        13.5300   16.0040    6.9140 C.3   206  HIS206      0.1621
    100  C         13.4860   16.4770    5.4580 C.2   206  HIS206      0.2264
    101  O         12.9430   17.5360    5.1430 O.2   206  HIS206     -0.2867
    102  CB        12.3350   16.5540    7.6820 C.3   206  HIS206      0.0745
    103  CG        12.2040   15.9900    9.0570 C.ar  206  HIS206      0.0817
    104  ND1       11.9650   14.6470    9.2580 N.ar  206  HIS206     -0.2268
    105  CD2       12.2900   16.5460   10.2840 C.ar  206  HIS206      0.1154
    106  CE1       11.9490   14.3980   10.5570 C.ar  206  HIS206      0.1986
    107  NE2       12.1270   15.5390   11.2110 N.ar  206  HIS206     -0.2212
    108  N         16.9570   13.4960   12.7170 N.3   235  GLU235     -0.1245
    109  CA        15.6040   13.0020   12.4500 C.3   235  GLU235      0.1567
    110  C         15.4590   12.6750   10.9640 C.2   235  GLU235      0.2260
    111  O         14.4300   12.9450   10.3410 O.2   235  GLU235     -0.2867
    112  CB        14.5280   14.0150   12.8760 C.3   235  GLU235      0.0388
    113  CG        14.6860   14.5350   14.2820 C.3   235  GLU235      0.1160
    114  CD        13.6080   15.5090   14.7000 C.2   235  GLU235      0.3649
    115  OE1       12.6270   15.7070   13.9290 O.co2 235  GLU235     -0.2457
    116  OE2       13.7660   16.1140   15.8100 O.co2 235  GLU235     -0.2457
    117  N         14.2930    8.9180   11.5340 N.3   265  TRP265     -0.1241
    118  CA        13.1040    9.1920   12.3510 C.3   265  TRP265      0.1605
    119  C         12.0690    8.0630   12.2520 C.2   265  TRP265      0.2264
    120  O         10.9310    8.2480   11.8120 O.2   265  TRP265     -0.2867
    121  CB        12.5380   10.5690   12.0410 C.3   265  TRP265      0.0550
    122  CG        11.7440   11.1390   13.1860 C.ar  265  TRP265      0.0003
    123  CD1       10.4160   11.4570   13.1760 C.ar  265  TRP265      0.0946
    124  CD2       12.2210   11.4270   14.5230 C.ar  265  TRP265      0.0152
    125  NE1       10.0410   11.9370   14.4070 N.ar  265  TRP265     -0.2442
    126  CE2       11.1160   11.9190   15.2630 C.ar  265  TRP265      0.0810
    127  CE3       13.4630   11.3370   15.1520 C.ar  265  TRP265      0.0012
    128  CZ2       11.2110   12.2660   16.6080 C.ar  265  TRP265      0.0191
    129  CZ3       13.5590   11.7010   16.4950 C.ar  265  TRP265      0.0001
    130  CH2       12.4440   12.1600   17.2010 C.ar  265  TRP265      0.0015
    131  N          6.0540    9.2270   10.9930 N.3   273  TRP273     -0.1241
    132  CA         5.0860   10.3080   11.0680 C.3   273  TRP273      0.1605
    133  C          4.6350   10.7560    9.6920 C.2   273  TRP273      0.2264
    134  O          3.5750   11.3790    9.5900 O.2   273  TRP273     -0.2867
    135  CB         5.6680   11.4850   11.8460 C.3   273  TRP273      0.0550
    136  CG         6.8040   12.2550   11.1790 C.ar  273  TRP273      0.0003
    137  CD1        7.8850   11.7520   10.5010 C.ar  273  TRP273      0.0946
    138  CD2        6.9400   13.6620   11.1610 C.ar  273  TRP273      0.0152
    139  NE1        8.6840   12.7840   10.0630 N.ar  273  TRP273     -0.2442
    140  CE2        8.1280   13.9720   10.4670 C.ar  273  TRP273      0.0810
    141  CE3        6.1590   14.7210   11.6860 C.ar  273  TRP273      0.0012
    142  CZ2        8.5560   15.2970   10.2760 C.ar  273  TRP273      0.0191
    143  CZ3        6.5870   16.0030   11.4750 C.ar  273  TRP273      0.0001
    144  CH2        7.7660   16.2900   10.7920 C.ar  273  TRP273      0.0015
@<TRIPOS>BOND
     1   101   100    2
     2   100    99    1
     3    99    98    1
     4    99   102    1
     5   102   103    1
     6   103   104   ar
     7   103   105   ar
     8    84    86   ar
     9    84    82   ar
    10   104   106   ar
    11    86    87   ar
    12    79    80    2
    13    79    78    1
    14   134   133    2
    15   133   132    1
    16   139   140   ar
    17   139   137   ar
    18   142   140   ar
    19   142   144   ar
    20    81    82    1
    21    81    78    1
    22   105   107   ar
    23    91    92    2
    24    91    90    1
    25   111   110    2
    26    82    83   ar
    27    78    77    1
    28   140   138   ar
    29   137   136   ar
    30   106   107   ar
    31    87    88    1
    32    87    85   ar
    33   144   143   ar
    34   110   109    1
    35   131   132    1
    36   132   135    1
    37   138   136   ar
    38   138   141   ar
    39   136   135    1
    40   143   141   ar
    41   117   118    1
    42    83    85   ar
    43    90    89    1
    44    90    93    1
    45   120   119    2
    46    93    94    1
    47   121   118    1
    48   121   122    1
    49   119   118    1
    50   109   108    1
    51   109   112    1
    52    96    95    2
    53   112   113    1
    54   123   122   ar
    55   123   125   ar
    56   122   124   ar
    57    94    95    1
    58    95    97   am
    59   115   114   ar
    60   113   114    1
    61   125   126   ar
    62   124   127   ar
    63   124   126   ar
    64   114   116   ar
    65    76    74   ar
    66   127   129   ar
    67    74    75   ar
    68    74    73    1
    69   126   128   ar
    70     9     7   ar
    71    73    72    1
    72    72    69    1
    73    69    70    1
    74    69    68    1
    75     7     8   ar
    76     7     6    1
    77   129   130   ar
    78    71    70    2
    79   128   130   ar
    80    68    62   am
    81     6     5    1
    82    66    65    2
    83    48    50   ar
    84    48    46   ar
    85    67    65   am
    86    45    46   ar
    87    45    43   ar
    88    65    64    1
    89    50    49   ar
    90    62    63    2
    91    62    61    1
    92    46    44   ar
    93     5     2    1
    94    35    36   ar
    95    35    33   ar
    96    26    25    1
    97    36    34   ar
    98    17    15   am
    99    61    64    1
   100    61    60    1
   101    43    42   ar
   102    58    57    2
   103     2     3    1
   104     2     1    1
   105     4     3    2
   106    16    15    2
   107    49    47   ar
   108    33    32   ar
   109    44    42   ar
   110    44    47   ar
   111    15    14    1
   112     3    10   am
   113    57    56    1
   114    57    59   am
   115    34    32   ar
   116    25    24    1
   117    42    41    1
   118    32    31    1
   119    56    55    1
   120    10    11    1
   121    51    52    1
   122    14    11    1
   123    24    23    1
   124    31    28    1
   125    41    38    1
   126    55    52    1
   127    11    12    1
   128    52    53    1
   129    39    38    1
   130    39    40    2
   131    38    37    1
   132    23    22    1
   133    28    29    1
   134    28    27    1
   135    12    13    2
   136    29    30    2
   137    53    54    2
   138    22    19    1
   139    19    18    1
   140    19    20    1
   141    20    21    2
