@<TRIPOS>MOLECULE
tmp/1v0oB00.pdb
 172 163 0 0 0
SMALL
GASTEIGER

@<TRIPOS>ATOM
      1  N          7.6630   34.9360   27.5750 N.3     8  ILE8       -0.1231
      2  CA         7.2720   33.8100   26.7210 C.3     8  ILE8        0.1692
      3  C          7.6400   34.0090   25.2450 C.2     8  ILE8        0.2593
      4  O          7.6490   33.0540   24.4720 O.2     8  ILE8       -0.2718
      5  CB         5.7700   33.4930   26.8770 C.3     8  ILE8        0.0266
      6  CG1        4.8950   34.7130   26.5420 C.3     8  ILE8        0.0019
      7  CG2        5.4890   32.9760   28.2880 C.3     8  ILE8        0.0020
      8  CD1        3.4140   34.5120   26.8780 C.3     8  ILE8        0.0001
      9  N          7.9510   35.2420   24.8600 N.am    9  GLY9       -0.1942
     10  CA         8.3930   35.5290   23.5080 C.3     9  GLY9        0.2014
     11  C          8.4570   37.0140   23.2160 C.2     9  GLY9        0.2639
     12  O          8.7020   37.8180   24.1130 O.2     9  GLY9       -0.2714
     13  N          8.2540   37.3680   21.9470 N.am   10  GLU10      -0.1963
     14  CA         8.2170   38.7690   21.5220 C.3    10  GLU10       0.1733
     15  C          7.5840   38.9740   20.1330 C.2    10  GLU10       0.2616
     16  O          7.8180   38.1980   19.2070 O.2    10  GLU10      -0.2715
     17  CB         9.6270   39.3740   21.5600 C.3    10  GLU10       0.0429
     18  CG        10.5730   38.9460   20.4500 C.3    10  GLU10       0.1163
     19  CD        11.8550   39.7490   20.4890 C.2    10  GLU10       0.3649
     20  OE1       11.9220   40.8000   19.8080 O.co2  10  GLU10      -0.2457
     21  OE2       12.7840   39.3430   21.2240 O.co2  10  GLU10      -0.2457
     22  N          6.7750   40.0230   20.0040 N.am   11  GLY11      -0.1955
     23  CA         6.2790   40.4600   18.7110 C.3    11  GLY11       0.1869
     24  C          7.3750   41.1150   17.8870 C.2    11  GLY11       0.2309
     25  O          8.5690   40.8540   18.0980 O.2    11  GLY11      -0.2863
     26  N          6.7590   39.8690   25.1460 N.3    16  VAL16      -0.1245
     27  CA         5.5150   39.2980   25.6590 C.3    16  VAL16       0.1561
     28  C          5.7850   38.4900   26.9180 C.2    16  VAL16       0.2260
     29  O          6.7530   37.7400   26.9790 O.2    16  VAL16      -0.2867
     30  CB         4.8320   38.3760   24.6190 C.3    16  VAL16       0.0252
     31  CG1        3.5040   37.8530   25.1600 C.3    16  VAL16       0.0019
     32  CG2        4.6170   39.1150   23.3010 C.3    16  VAL16       0.0019
     33  N         -1.5270   37.5140   28.7770 N.3    28  ALA28      -0.1245
     34  CA        -0.2710   37.8340   28.1270 C.3    28  ALA28       0.1562
     35  C         -0.1260   39.3450   28.0690 C.2    28  ALA28       0.2260
     36  O         -1.0220   40.0120   27.5850 O.2    28  ALA28      -0.2867
     37  CB        -0.2370   37.2490   26.7420 C.3    28  ALA28       0.0290
     38  N          2.0770   42.5950   26.6120 N.3    30  LYS30      -0.1245
     39  CA         2.9530   42.9820   25.5210 C.3    30  LYS30       0.1561
     40  C          3.5450   44.3390   25.8850 C.2    30  LYS30       0.2260
     41  O          2.8930   45.3680   25.7200 O.2    30  LYS30      -0.2867
     42  CB         2.1440   43.0460   24.2190 C.3    30  LYS30       0.0271
     43  CG         2.9360   43.1810   22.9330 C.3    30  LYS30       0.0035
     44  CD         1.9720   43.0890   21.7420 C.3    30  LYS30       0.0206
     45  CE         2.6120   43.4640   20.4010 C.3    30  LYS30       0.1093
     46  NZ         1.9030   42.7750   19.2750 N.3    30  LYS30      -0.1314
     47  N         -2.7600   49.3240   15.5240 N.3    38  GLU38      -0.1245
     48  CA        -2.8350   47.8930   15.8570 C.3    38  GLU38       0.1567
     49  C         -3.9840   47.6510   16.8230 C.2    38  GLU38       0.2260
     50  O         -4.7240   46.6750   16.6870 O.2    38  GLU38      -0.2867
     51  CB        -1.5360   47.3860   16.4870 C.3    38  GLU38       0.0388
     52  CG        -1.5670   45.8980   16.8370 C.3    38  GLU38       0.1160
     53  CD        -0.3800   45.4470   17.6640 C.2    38  GLU38       0.3649
     54  OE1        0.7590   45.8150   17.3180 O.co2  38  GLU38      -0.2457
     55  OE2       -0.5840   44.7070   18.6510 O.co2  38  GLU38      -0.2457
     56  N         -6.7150   36.4870   18.2940 N.3    51  VAL51      -0.1245
     57  CA        -6.4160   36.7160   19.7090 C.3    51  VAL51       0.1561
     58  C         -7.1200   38.0010   20.1630 C.2    51  VAL51       0.2260
     59  O         -7.2660   38.9300   19.3830 O.2    51  VAL51      -0.2867
     60  CB        -4.8820   36.7990   19.9780 C.3    51  VAL51       0.0252
     61  CG1       -4.6020   36.8800   21.4400 C.3    51  VAL51       0.0019
     62  CG2       -4.1720   35.5680   19.4350 C.3    51  VAL51       0.0019
     63  N         -3.4770   40.9520   26.6850 N.3    67  PHE67      -0.1227
     64  CA        -4.1620   40.0620   25.7850 C.3    67  PHE67       0.1736
     65  C         -4.5650   38.7810   26.5380 C.2    67  PHE67       0.2595
     66  O         -4.0350   38.4810   27.6180 O.2    67  PHE67      -0.2718
     67  CB        -3.2070   39.6210   24.6750 C.3    67  PHE67       0.0547
     68  CG        -2.8660   40.6750   23.6630 C.ar   67  PHE67      -0.0202
     69  CD1       -1.7800   41.5210   23.8540 C.ar   67  PHE67      -0.0042
     70  CD2       -3.5900   40.7760   22.4800 C.ar   67  PHE67      -0.0042
     71  CE1       -1.4430   42.4850   22.8860 C.ar   67  PHE67      -0.0003
     72  CE2       -3.2640   41.7290   21.5130 C.ar   67  PHE67      -0.0003
     73  CZ        -2.1860   42.5840   21.7130 C.ar   67  PHE67      -0.0000
     74  N         -5.4670   38.0110   25.9500 N.am   68  GLU68      -0.1965
     75  CA        -5.6500   36.6250   26.3880 C.3    68  GLU68       0.1733
     76  C         -4.3340   35.8760   26.1900 C.2    68  GLU68       0.2616
     77  O         -3.5010   36.2730   25.3580 O.2    68  GLU68      -0.2715
     78  CB        -6.7850   35.9340   25.6240 C.3    68  GLU68       0.0429
     79  CG        -6.4680   35.6020   24.1830 C.3    68  GLU68       0.1163
     80  CD        -7.5980   34.8730   23.4790 C.2    68  GLU68       0.3649
     81  OE1       -7.9690   33.7600   23.9130 O.co2  68  GLU68      -0.2457
     82  OE2       -8.1040   35.4070   22.4760 O.co2  68  GLU68      -0.2457
     83  N         -4.1690   34.7800   26.9350 N.am   69  HIS69      -0.1959
     84  CA        -2.9220   34.0340   26.9610 C.3    69  HIS69       0.1787
     85  C         -3.1630   32.6380   26.3950 C.2    69  HIS69       0.2620
     86  O         -4.1940   32.0340   26.6680 O.2    69  HIS69      -0.2715
     87  CB        -2.3530   33.9180   28.3830 C.3    69  HIS69       0.0785
     88  CG        -1.2270   32.9370   28.4850 C.ar   69  HIS69       0.0821
     89  ND1       -0.0030   33.1570   27.8920 N.ar   69  HIS69      -0.2267
     90  CD2       -1.1660   31.6970   29.0290 C.ar   69  HIS69       0.1154
     91  CE1        0.7740   32.1080   28.0930 C.ar   69  HIS69       0.1986
     92  NE2        0.0980   31.2130   28.7890 N.ar   69  HIS69      -0.2212
     93  N         -2.2200   32.1710   25.5840 N.am   70  LEU70      -0.1963
     94  CA        -2.2090   30.8050   25.0430 C.3    70  LEU70       0.1728
     95  C         -0.8560   30.1590   25.3150 C.2    70  LEU70       0.2616
     96  O          0.1840   30.7780   25.1450 O.2    70  LEU70      -0.2715
     97  CB        -2.4980   30.8180   23.5370 C.3    70  LEU70       0.0311
     98  CG        -3.9030   31.3100   23.1570 C.3    70  LEU70       0.0022
     99  CD1       -3.9000   32.8020   22.8470 C.3    70  LEU70       0.0001
    100  CD2       -4.4950   30.5290   21.9830 C.3    70  LEU70       0.0001
    101  N         -0.8590   28.8870   25.7040 N.am   71  ASP71      -0.1957
    102  CA         0.3510   28.2740   26.2330 C.3    71  ASP71       0.1840
    103  C          1.4980   28.2200   25.2290 C.2    71  ASP71       0.2622
    104  O          2.6540   28.3550   25.6160 O.2    71  ASP71      -0.2715
    105  CB         0.0680   26.8460   26.7320 C.3    71  ASP71       0.1450
    106  CG        -0.5590   26.8240   28.1030 C.2    71  ASP71       0.3671
    107  OD1        0.1130   27.1830   29.0930 O.co2  71  ASP71      -0.2456
    108  OD2       -1.7300   26.4560   28.2930 O.co2  71  ASP71      -0.2456
    109  N          1.1710   27.9970   23.9550 N.am   72  GLN72      -0.1963
    110  CA         2.1750   27.7220   22.9250 C.3    72  GLN72       0.1733
    111  C          1.9580   28.5470   21.6610 C.2    72  GLN72       0.2616
    112  O          0.8880   29.1060   21.4580 O.2    72  GLN72      -0.2715
    113  CB         2.1140   26.2380   22.5180 C.3    72  GLN72       0.0408
    114  CG         2.1540   25.2230   23.6710 C.3    72  GLN72       0.0908
    115  CD         1.0570   24.1670   23.5730 C.2    72  GLN72       0.2608
    116  OE1        1.3510   22.9950   23.3440 O.2    72  GLN72      -0.2717
    117  NE2       -0.2030   24.5760   23.7520 N.am   72  GLN72      -0.0878
    118  N          2.9850   28.6140   20.8200 N.am   73  ASP73      -0.1971
    119  CA         2.8100   28.9940   19.4220 C.3    73  ASP73       0.1709
    120  C          3.0680   27.7840   18.4960 C.2    73  ASP73       0.2293
    121  O          3.4780   26.7080   18.9500 O.2    73  ASP73      -0.2864
    122  CB         3.6390   30.2450   19.0460 C.3    73  ASP73       0.1436
    123  CG         5.1380   30.0460   19.1750 C.2    73  ASP73       0.3671
    124  OD1        5.8720   31.0470   19.0880 O.co2  73  ASP73      -0.2456
    125  OD2        5.6920   28.9490   19.3620 O.co2  73  ASP73      -0.2456
    126  N          6.6670   26.3590   18.2910 N.3    76  LYS76      -0.1245
    127  CA         7.1130   25.4410   19.3420 C.3    76  LYS76       0.1561
    128  C          6.6780   24.0130   19.0210 C.2    76  LYS76       0.2260
    129  O          7.4480   23.0770   19.2310 O.2    76  LYS76      -0.2867
    130  CB         6.5920   25.8660   20.7250 C.3    76  LYS76       0.0271
    131  CG         7.6600   26.4800   21.6450 C.3    76  LYS76       0.0035
    132  CD         7.8490   27.9860   21.3890 C.3    76  LYS76       0.0206
    133  CE         9.2380   28.3490   20.8480 C.3    76  LYS76       0.1093
    134  NZ         9.1470   29.2500   19.6610 N.3    76  LYS76      -0.1314
    135  N          5.4330   31.7750   14.5730 N.3   117  GLN117     -0.1231
    136  CA         5.5190   32.5850   15.8020 C.3   117  GLN117      0.1698
    137  C          4.2390   33.3900   16.1080 C.2   117  GLN117      0.2592
    138  O          4.0220   33.8040   17.2420 O.2   117  GLN117     -0.2718
    139  CB         6.7030   33.5800   15.7180 C.3   117  GLN117      0.0381
    140  CG         8.0120   33.1290   16.3920 C.3   117  GLN117      0.0905
    141  CD         8.7570   34.2860   17.0840 C.2   117  GLN117      0.2608
    142  OE1        8.8820   35.3830   16.5180 O.2   117  GLN117     -0.2717
    143  NE2        9.2400   34.0430   18.3050 N.am  117  GLN117     -0.0878
    144  N          3.4270   33.6320   15.0820 N.am  118  ASN118     -0.1974
    145  CA         2.2220   34.4610   15.1720 C.3   118  ASN118      0.1688
    146  C          0.9370   33.6500   15.2590 C.2   118  ASN118      0.2292
    147  O         -0.1390   34.2180   15.3180 O.2   118  ASN118     -0.2864
    148  CB         2.1390   35.3630   13.9300 C.3   118  ASN118      0.1181
    149  CG         3.1860   36.4330   13.9260 C.2   118  ASN118      0.2629
    150  OD1        3.4070   37.0930   12.9190 O.2   118  ASN118     -0.2716
    151  ND2        3.8430   36.6250   15.0720 N.am  118  ASN118     -0.0877
    152  N         -1.0040   31.0640   17.5780 N.3   120  LEU120     -0.1245
    153  CA        -1.0130   30.6310   18.9700 C.3   120  LEU120      0.1561
    154  C         -1.9670   29.4620   19.1130 C.2   120  LEU120      0.2260
    155  O         -2.9880   29.4160   18.4360 O.2   120  LEU120     -0.2867
    156  CB        -1.4600   31.7790   19.8740 C.3   120  LEU120      0.0270
    157  CG        -0.5600   33.0210   19.8900 C.3   120  LEU120      0.0019
    158  CD1        0.8870   32.6970   20.2120 C.3   120  LEU120      0.0001
    159  CD2       -0.6040   33.7570   18.5880 C.3   120  LEU120      0.0001
    160  N         -2.2070   36.1760   15.9640 N.3   130  ALA130     -0.1231
    161  CA        -1.7800   37.3520   16.7220 C.3   130  ALA130      0.1694
    162  C         -0.8510   38.2180   15.8900 C.2   130  ALA130      0.2592
    163  O         -0.6580   37.9690   14.7080 O.2   130  ALA130     -0.2718
    164  CB        -1.0940   36.9320   18.0040 C.3   130  ALA130      0.0304
    165  N         -0.2880   39.2430   16.5270 N.am  131  ASP131     -0.1974
    166  CA         0.6870   40.1580   15.9130 C.3   131  ASP131      0.1709
    167  C          0.2310   40.8150   14.6130 C.2   131  ASP131      0.2293
    168  O          0.6540   40.4300   13.5220 O.2   131  ASP131     -0.2864
    169  CB         2.0590   39.5160   15.7060 C.3   131  ASP131      0.1436
    170  CG         3.1860   40.5620   15.6530 C.2   131  ASP131      0.3671
    171  OD1        2.8830   41.7780   15.5510 O.co2 131  ASP131     -0.2456
    172  OD2        4.3990   40.2740   15.7180 O.co2 131  ASP131     -0.2456
@<TRIPOS>BOND
     1   150   149    2
     2   168   167    2
     3   149   148    1
     4   149   151   am
     5   148   145    1
     6   135   136    1
     7   167   166    1
     8   163   162    2
     9   144   145    1
    10   144   137   am
    11   145   146    1
    12   146   147    2
    13    47    48    1
    14   171   170   ar
    15   170   169    1
    16   170   172   ar
    17   169   166    1
    18   139   136    1
    19   139   140    1
    20   136   137    1
    21    48    51    1
    22    48    49    1
    23   162   165   am
    24   162   161    1
    25   166   165    1
    26   160   161    1
    27   137   138    2
    28   140   141    1
    29    51    52    1
    30   142   141    2
    31    50    49    2
    32   161   164    1
    33    52    53    1
    34   141   143   am
    35    54    53   ar
    36   152   153    1
    37    53    55   ar
    38    24    25    2
    39    24    23    1
    40   126   127    1
    41    56    57    1
    42   155   154    2
    43   120   121    2
    44   120   119    1
    45   159   157    1
    46    23    22    1
    47   153   154    1
    48   153   156    1
    49   128   129    2
    50   128   127    1
    51   122   123    1
    52   122   119    1
    53   124   123   ar
    54   123   125   ar
    55    16    15    2
    56    46    45    1
    57   127   130    1
    58    59    58    2
    59   119   118    1
    60    62    60    1
    61   134   133    1
    62    57    60    1
    63    57    58    1
    64    20    19   ar
    65   156   157    1
    66   157   158    1
    67    60    61    1
    68    22    15   am
    69    15    14    1
    70    45    44    1
    71    18    19    1
    72    18    17    1
    73    19    21   ar
    74   130   131    1
    75   118   111   am
    76   133   132    1
    77   132   131    1
    78   112   111    2
    79    72    73   ar
    80    72    70   ar
    81    14    17    1
    82    14    13    1
    83   111   110    1
    84    73    71   ar
    85    44    43    1
    86    13    11   am
    87   100    98    1
    88    82    80   ar
    89    70    68   ar
    90   113   110    1
    91   113   114    1
    92    99    98    1
    93    71    69   ar
    94   110   109    1
    95    43    42    1
    96    98    97    1
    97    11    10    1
    98    11    12    2
    99    32    30    1
   100   116   115    2
   101    80    81   ar
   102    80    79    1
   103    10     9    1
   104    97    94    1
   105   115   114    1
   106   115   117   am
   107    68    69   ar
   108    68    67    1
   109   109   103   am
   110    79    78    1
   111    42    39    1
   112     4     3    2
   113    30    31    1
   114    30    27    1
   115    67    64    1
   116     9     3   am
   117    94    95    1
   118    94    93    1
   119    96    95    2
   120    26    27    1
   121   103   104    2
   122   103   102    1
   123     3     2    1
   124    95   101   am
   125    77    76    2
   126    39    40    1
   127    39    38    1
   128    93    85   am
   129    78    75    1
   130    27    28    1
   131   101   102    1
   132    41    40    2
   133    64    65    1
   134    64    63    1
   135    74    75    1
   136    74    65   am
   137    76    75    1
   138    76    83   am
   139   102   105    1
   140    85    86    2
   141    85    84    1
   142    65    66    2
   143     6     5    1
   144     6     8    1
   145     2     5    1
   146     2     1    1
   147   105   106    1
   148    37    34    1
   149     5     7    1
   150    28    29    2
   151    83    84    1
   152    84    87    1
   153    36    35    2
   154    89    91   ar
   155    89    88   ar
   156    35    34    1
   157    91    92   ar
   158   106   108   ar
   159   106   107   ar
   160    34    33    1
   161    87    88    1
   162    88    90   ar
   163    92    90   ar
