@<TRIPOS>MOLECULE
tmp/1v0pA00.pdb
 155 147 0 0 0
SMALL
GASTEIGER

@<TRIPOS>ATOM
      1  N         31.9640    1.6840   34.9540 N.3    10  ILE10      -0.1231
      2  CA        31.2780    0.5170   34.3910 C.3    10  ILE10       0.1692
      3  C         30.9990    0.7790   32.9250 C.2    10  ILE10       0.2593
      4  O         31.1150   -0.1190   32.1190 O.2    10  ILE10      -0.2718
      5  CB        29.9320    0.2140   35.1450 C.3    10  ILE10       0.0266
      6  CG1       30.2220   -0.1200   36.6150 C.3    10  ILE10       0.0019
      7  CG2       29.1170   -0.8830   34.4140 C.3    10  ILE10       0.0020
      8  CD1       28.9780   -0.4090   37.4440 C.3    10  ILE10       0.0001
      9  N         30.5860    2.0070   32.5910 N.am   11  GLY11      -0.1942
     10  CA        30.3430    2.3730   31.2110 C.3    11  GLY11       0.2014
     11  C         29.4340    3.5620   31.0990 C.2    11  GLY11       0.2639
     12  O         29.1510    4.2470   32.0870 O.2    11  GLY11      -0.2714
     13  N         28.9890    3.8110   29.8770 N.am   12  GLU12      -0.1963
     14  CA        28.1570    4.9710   29.5570 C.3    12  GLU12       0.1733
     15  C         26.6540    4.6080   29.5440 C.2    12  GLU12       0.2616
     16  O         26.1950    3.9440   28.6250 O.2    12  GLU12      -0.2715
     17  CB        28.6040    5.5020   28.1810 C.3    12  GLU12       0.0429
     18  CG        27.8920    6.7450   27.6990 C.3    12  GLU12       0.1163
     19  CD        27.9530    7.8480   28.7290 C.2    12  GLU12       0.3649
     20  OE1       29.0970    8.1510   29.1930 O.co2  12  GLU12      -0.2457
     21  OE2       26.8480    8.3890   29.0670 O.co2  12  GLU12      -0.2457
     22  N         25.8940    5.0190   30.5620 N.am   13  GLY13      -0.1955
     23  CA        24.4760    4.6970   30.6010 C.3    13  GLY13       0.1869
     24  C         23.6200    5.7480   29.9320 C.2    13  GLY13       0.2309
     25  O         24.1240    6.7230   29.3650 O.2    13  GLY13      -0.2863
     26  N         28.3520    5.5910   34.5860 N.3    18  VAL18      -0.1245
     27  CA        28.1450    4.8150   35.8080 C.3    18  VAL18       0.1561
     28  C         29.4960    4.2740   36.2110 C.2    18  VAL18       0.2260
     29  O         30.2420    3.7830   35.3610 O.2    18  VAL18      -0.2867
     30  CB        27.0780    3.6590   35.5690 C.3    18  VAL18       0.0252
     31  CG1       26.9660    2.6650   36.7780 C.3    18  VAL18       0.0019
     32  CG2       25.7020    4.2800   35.1990 C.3    18  VAL18       0.0019
     33  N         26.8140    1.9420   43.0240 N.3    30  ALA30      -0.1245
     34  CA        26.8950    2.4100   41.6560 C.3    30  ALA30       0.1562
     35  C         26.5830    3.9190   41.6050 C.2    30  ALA30       0.2260
     36  O         25.5150    4.3710   42.0130 O.2    30  ALA30      -0.2867
     37  CB        25.9310    1.6130   40.7430 C.3    30  ALA30       0.0290
     38  N         25.9130    7.2550   39.3760 N.3    32  LYS32      -0.1245
     39  CA        25.6170    7.7140   38.0470 C.3    32  LYS32       0.1561
     40  C         25.8790    9.2280   38.0060 C.2    32  LYS32       0.2260
     41  O         25.1470    9.9790   38.6290 O.2    32  LYS32      -0.2867
     42  CB        24.1590    7.4280   37.7030 C.3    32  LYS32       0.0271
     43  CG        23.8160    7.6610   36.2470 C.3    32  LYS32       0.0035
     44  CD        22.3320    7.3960   36.0140 C.3    32  LYS32       0.0206
     45  CE        22.1840    6.4130   34.8750 C.3    32  LYS32       0.1093
     46  NZ        21.5460    5.1300   35.2640 N.3    32  LYS32      -0.1314
     47  N         15.8490   -0.9120   41.5060 N.3    63  VAL63      -0.1245
     48  CA        17.1680   -0.4300   41.9960 C.3    63  VAL63       0.1561
     49  C         16.9830    0.6650   43.0580 C.2    63  VAL63       0.2260
     50  O         16.3030    1.6620   42.8080 O.2    63  VAL63      -0.2867
     51  CB        18.0330    0.0440   40.8220 C.3    63  VAL63       0.0252
     52  CG1       19.4500    0.5880   41.3130 C.3    63  VAL63       0.0019
     53  CG2       18.1960   -1.1240   39.7910 C.3    63  VAL63       0.0019
     54  N         23.3130    4.6720   43.7560 N.3    79  PHE79      -0.1227
     55  CA        22.3690    3.5590   43.6780 C.3    79  PHE79       0.1736
     56  C         23.0200    2.2960   44.2510 C.2    79  PHE79       0.2595
     57  O         24.2380    2.2550   44.3790 O.2    79  PHE79      -0.2718
     58  CB        22.0650    3.2930   42.1820 C.3    79  PHE79       0.0547
     59  CG        21.1790    4.3400   41.5160 C.ar   79  PHE79      -0.0202
     60  CD1       21.7210    5.2480   40.5710 C.ar   79  PHE79      -0.0042
     61  CD2       19.8070    4.3580   41.7430 C.ar   79  PHE79      -0.0042
     62  CE1       20.9050    6.1290   39.9150 C.ar   79  PHE79      -0.0003
     63  CE2       18.9800    5.2530   41.0880 C.ar   79  PHE79      -0.0003
     64  CZ        19.5380    6.1460   40.1770 C.ar   79  PHE79      -0.0000
     65  N         22.2540    1.2390   44.5220 N.am   80  GLU80      -0.1965
     66  CA        22.8860   -0.0890   44.7710 C.3    80  GLU80       0.1733
     67  C         23.5140   -0.5550   43.4720 C.2    80  GLU80       0.2616
     68  O         23.1310   -0.0580   42.3900 O.2    80  GLU80      -0.2715
     69  CB        21.8900   -1.1580   45.2650 C.3    80  GLU80       0.0429
     70  CG        20.6790   -1.2990   44.3630 C.3    80  GLU80       0.1163
     71  CD        19.6590   -2.3300   44.8000 C.2    80  GLU80       0.3649
     72  OE1       20.0350   -3.5330   44.9370 O.co2  80  GLU80      -0.2457
     73  OE2       18.4780   -1.9330   44.9430 O.co2  80  GLU80      -0.2457
     74  N         24.4480   -1.5090   43.5760 N.am   81  HIS81      -0.1959
     75  CA        25.2380   -1.9620   42.4500 C.3    81  HIS81       0.1787
     76  C         24.7640   -3.3660   42.1110 C.2    81  HIS81       0.2620
     77  O         24.5120   -4.1670   43.0120 O.2    81  HIS81      -0.2715
     78  CB        26.7460   -1.9820   42.8310 C.3    81  HIS81       0.0785
     79  CG        27.6000   -2.7360   41.8700 C.ar   81  HIS81       0.0821
     80  ND1       28.1450   -2.1530   40.7420 N.ar   81  HIS81      -0.2267
     81  CD2       27.9730   -4.0280   41.8440 C.ar   81  HIS81       0.1154
     82  CE1       28.8240   -3.0590   40.0650 C.ar   81  HIS81       0.1986
     83  NE2       28.7370   -4.2100   40.7130 N.ar   81  HIS81      -0.2212
     84  N         24.6150   -3.6530   40.8280 N.am   82  LEU82      -0.1963
     85  CA        24.3060   -5.0120   40.4400 C.3    82  LEU82       0.1728
     86  C         25.3270   -5.4540   39.4440 C.2    82  LEU82       0.2616
     87  O         25.9800   -4.6260   38.7750 O.2    82  LEU82      -0.2715
     88  CB        22.8510   -5.1510   39.9050 C.3    82  LEU82       0.0311
     89  CG        21.7530   -5.1810   41.0080 C.3    82  LEU82       0.0022
     90  CD1       21.2980   -3.6940   41.3070 C.3    82  LEU82       0.0001
     91  CD2       20.5460   -6.0790   40.6090 C.3    82  LEU82       0.0001
     92  N         25.4910   -6.7530   39.3090 N.am   83  ASP83      -0.1957
     93  CA        26.6970   -7.1660   38.6390 C.3    83  ASP83       0.1840
     94  C         26.6140   -7.2690   37.1230 C.2    83  ASP83       0.2622
     95  O         27.6460   -7.3730   36.4520 O.2    83  ASP83      -0.2715
     96  CB        27.2650   -8.4150   39.3260 C.3    83  ASP83       0.1450
     97  CG        26.8040   -9.6430   38.7190 C.2    83  ASP83       0.3671
     98  OD1       25.5760   -9.8690   38.7250 O.co2  83  ASP83      -0.2456
     99  OD2       27.5980  -10.4700   38.1800 O.co2  83  ASP83      -0.2456
    100  N         25.3960   -7.1970   36.5600 N.am   84  GLN84      -0.1963
    101  CA        25.2270   -7.4540   35.1360 C.3    84  GLN84       0.1733
    102  C         23.9260   -6.8320   34.6540 C.2    84  GLN84       0.2616
    103  O         23.0530   -6.5520   35.4450 O.2    84  GLN84      -0.2715
    104  CB        25.0480   -8.9670   34.9590 C.3    84  GLN84       0.0408
    105  CG        25.5040   -9.4830   33.6820 C.3    84  GLN84       0.0908
    106  CD        25.1500  -10.9460   33.5210 C.2    84  GLN84       0.2608
    107  OE1       24.8020  -11.6440   34.4780 O.2    84  GLN84      -0.2717
    108  NE2       25.2900  -11.4180   32.3390 N.am   84  GLN84      -0.0878
    109  N         23.7760   -6.6820   33.3360 N.am   85  ASP85      -0.1971
    110  CA        22.4610   -6.3230   32.8170 C.3    85  ASP85       0.1709
    111  C         21.9420   -7.4710   31.9450 C.2    85  ASP85       0.2293
    112  O         22.7250   -8.3340   31.5420 O.2    85  ASP85      -0.2864
    113  CB        22.5000   -4.9400   32.1480 C.3    85  ASP85       0.1436
    114  CG        23.2020   -4.9360   30.8380 C.2    85  ASP85       0.3671
    115  OD1       23.2410   -3.8920   30.1330 O.co2  85  ASP85      -0.2456
    116  OD2       23.7050   -5.9440   30.3650 O.co2  85  ASP85      -0.2456
    117  N         23.7070   -8.1000   28.6110 N.3    88  LYS88      -0.1245
    118  CA        24.9850   -8.8060   28.6400 C.3    88  LYS88       0.1561
    119  C         24.7750  -10.3320   28.7970 C.2    88  LYS88       0.2260
    120  O         25.4230  -11.0830   28.0980 O.2    88  LYS88      -0.2867
    121  CB        25.9000   -8.2290   29.7170 C.3    88  LYS88       0.0271
    122  CG        27.2810   -8.9510   29.8160 C.3    88  LYS88       0.0035
    123  CD        27.9780   -8.6780   31.1910 C.3    88  LYS88       0.0206
    124  CE        29.1630   -9.6250   31.4670 C.3    88  LYS88       0.1093
    125  NZ        30.2580   -9.2520   30.4900 N.3    88  LYS88      -0.1314
    126  N         19.1300   -3.1490   28.6880 N.3   129  GLN129     -0.1245
    127  CA        20.2070   -2.4320   29.3810 C.3   129  GLN129      0.1566
    128  C         19.8440   -1.8930   30.7530 C.2   129  GLN129      0.2260
    129  O         20.7350   -1.6550   31.5510 O.2   129  GLN129     -0.2867
    130  CB        20.7660   -1.2720   28.5520 C.3   129  GLN129      0.0367
    131  CG        21.5490   -1.7370   27.3480 C.3   129  GLN129      0.0905
    132  CD        21.1210   -1.0840   26.0190 C.2   129  GLN129      0.2608
    133  OE1       20.7040    0.0630   25.9860 O.2   129  GLN129     -0.2717
    134  NE2       21.2530   -1.8330   24.9160 N.am  129  GLN129     -0.0878
    135  N         18.6400   -4.9740   35.5030 N.3   132  LEU132     -0.1245
    136  CA        19.9090   -5.3640   36.0970 C.3   132  LEU132      0.1561
    137  C         19.6900   -6.6690   36.8370 C.2   132  LEU132      0.2260
    138  O         18.6020   -6.8860   37.3590 O.2   132  LEU132     -0.2867
    139  CB        20.4800   -4.2450   37.0250 C.3   132  LEU132      0.0270
    140  CG        20.5900   -2.8820   36.3200 C.3   132  LEU132      0.0019
    141  CD1       21.1570   -1.7930   37.2560 C.3   132  LEU132      0.0001
    142  CD2       21.3960   -2.9550   35.0310 C.3   132  LEU132      0.0001
    143  N         16.4010   -0.3430   36.5600 N.3   142  ALA142     -0.1231
    144  CA        17.1000    0.9670   36.7600 C.3   142  ALA142      0.1694
    145  C         16.4030    2.0770   35.9780 C.2   142  ALA142      0.2592
    146  O         15.7820    1.8050   34.9900 O.2   142  ALA142     -0.2718
    147  CB        18.5410    0.8600   36.2770 C.3   142  ALA142      0.0304
    148  N         16.4420    3.2990   36.4780 N.am  143  ASP143     -0.1974
    149  CA        16.0380    4.5080   35.7470 C.3   143  ASP143      0.1709
    150  C         14.5310    4.7510   35.7820 C.2   143  ASP143      0.2293
    151  O         14.0440    5.6760   35.1020 O.2   143  ASP143     -0.2864
    152  CB        16.5470    4.5060   34.2870 C.3   143  ASP143      0.1436
    153  CG        18.0520    4.6880   34.1890 C.2   143  ASP143      0.3671
    154  OD1       18.7110    5.0340   35.2160 O.co2 143  ASP143     -0.2456
    155  OD2       18.6710    4.5060   33.1220 O.co2 143  ASP143     -0.2456
@<TRIPOS>BOND
     1   134   132   am
     2   133   132    2
     3   132   131    1
     4   131   130    1
     5    18    17    1
     6    18    19    1
     7   120   119    2
     8    17    14    1
     9   130   127    1
    10   117   118    1
    11    16    15    2
    12   118   119    1
    13   118   121    1
    14   126   127    1
    15    19    21   ar
    16    19    20   ar
    17    25    24    2
    18   127   128    1
    19    15    14    1
    20    15    22   am
    21    14    13    1
    22   121   122    1
    23   122   123    1
    24    13    11   am
    25    24    23    1
    26   115   114   ar
    27   116   114   ar
    28   125   124    1
    29    22    23    1
    30   128   129    2
    31   114   113    1
    32    11    10    1
    33    11    12    2
    34   123   124    1
    35    10     9    1
    36   112   111    2
    37   111   110    1
    38     4     3    2
    39   113   110    1
    40   108   106   am
    41     9     3   am
    42   110   109    1
    43     3     2    1
    44   155   153   ar
    45   109   102   am
    46   106   105    1
    47   106   107    2
    48   105   104    1
    49   153   152    1
    50   153   154   ar
    51   152   149    1
    52     2     1    1
    53     2     5    1
    54     7     5    1
    55    26    27    1
    56   102   101    1
    57   102   103    2
    58    45    46    1
    59    45    44    1
    60   104   101    1
    61   146   145    2
    62   142   140    1
    63   151   150    2
    64   101   100    1
    65     5     6    1
    66    32    30    1
    67    29    28    2
    68   135   136    1
    69    30    27    1
    70    30    31    1
    71   149   150    1
    72   149   148    1
    73    27    28    1
    74   145   148   am
    75   145   144    1
    76    44    43    1
    77   136   137    1
    78   136   139    1
    79    43    42    1
    80   147   144    1
    81   140   139    1
    82   140   141    1
    83    95    94    2
    84   143   144    1
    85   100    94   am
    86     6     8    1
    87   137   138    2
    88    94    93    1
    89    42    39    1
    90    40    39    1
    91    40    41    2
    92    39    38    1
    93    99    97   ar
    94    93    92    1
    95    93    96    1
    96    97    98   ar
    97    97    96    1
    98    87    86    2
    99    92    86   am
   100    86    85    1
   101    53    51    1
   102    88    85    1
   103    88    89    1
   104    62    64   ar
   105    62    60   ar
   106    82    83   ar
   107    82    80   ar
   108    64    63   ar
   109    85    84    1
   110    60    59   ar
   111    91    89    1
   112    83    81   ar
   113    80    79   ar
   114    37    34    1
   115    51    52    1
   116    51    48    1
   117    84    76   am
   118    89    90    1
   119    63    61   ar
   120    47    48    1
   121    59    61   ar
   122    59    58    1
   123    35    34    1
   124    35    36    2
   125    34    33    1
   126    81    79   ar
   127    79    78    1
   128    48    49    1
   129    76    75    1
   130    76    77    2
   131    58    55    1
   132    68    67    2
   133    75    78    1
   134    75    74    1
   135    50    49    2
   136    67    74   am
   137    67    66    1
   138    55    54    1
   139    55    56    1
   140    56    57    2
   141    56    65   am
   142    70    71    1
   143    70    69    1
   144    65    66    1
   145    66    69    1
   146    71    72   ar
   147    71    73   ar
