@<TRIPOS>MOLECULE
tmp/1v0yA00.pdb
 187 179 0 0 0
SMALL
GASTEIGER

@<TRIPOS>ATOM
      1  N         17.0280   34.0420   10.2620 N.3    85  LEU85      -0.1231
      2  CA        17.0560   33.2430    9.0350 C.3    85  LEU85       0.1693
      3  C         16.9550   34.2420    7.8540 C.2    85  LEU85       0.2592
      4  O         16.1360   35.1870    7.8670 O.2    85  LEU85      -0.2718
      5  CB        15.8270   32.3430    9.0350 C.3    85  LEU85       0.0284
      6  CG        15.7390   31.4640    7.8080 C.3    85  LEU85       0.0019
      7  CD1       16.8950   30.4460    7.7190 C.3    85  LEU85       0.0001
      8  CD2       14.4020   30.8120    7.7430 C.3    85  LEU85       0.0001
      9  N         17.7980   34.0420    6.8570 N.am   86  ALA86      -0.1966
     10  CA        17.8450   34.9740    5.7080 C.3    86  ALA86       0.1713
     11  C         16.4810   34.9310    4.9980 C.2    86  ALA86       0.2458
     12  O         15.8070   33.8970    4.9870 O.2    86  ALA86      -0.2730
     13  CB        18.9420   34.5050    4.7700 C.3    86  ALA86       0.0333
     14  N         16.0560   36.0090    4.3480 N.am   87  PRO87      -0.2727
     15  CA        16.7980   37.2610    4.1940 C.3    87  PRO87       0.1402
     16  C         17.0680   38.0870    5.4570 C.2    87  PRO87       0.2269
     17  O         16.3060   37.9880    6.4160 O.2    87  PRO87      -0.2865
     18  CB        15.8980   38.0930    3.2480 C.3    87  PRO87       0.0296
     19  CG        14.8750   37.1560    2.7190 C.3    87  PRO87       0.0237
     20  CD        14.7870   35.9640    3.6080 C.3    87  PRO87       0.0939
     21  N         21.5730   30.6170    5.8490 N.3   119  ALA119     -0.1231
     22  CA        21.0990   30.6650    4.4910 C.3   119  ALA119      0.1694
     23  C         21.2980   29.3210    3.7900 C.2   119  ALA119      0.2591
     24  O         22.2020   28.5700    4.1320 O.2   119  ALA119     -0.2718
     25  CB        21.8510   31.7110    3.8000 C.3   119  ALA119      0.0304
     26  N         20.4420   29.0160    2.8320 N.am  120  ALA120     -0.1980
     27  CA        20.7930   27.9740    1.8210 C.3   120  ALA120      0.1597
     28  C         22.1020   28.3390    1.1060 C.2   120  ALA120      0.2287
     29  O         22.3350   29.5130    0.7810 O.2   120  ALA120     -0.2864
     30  CB        19.7120   27.7960    0.8180 C.3   120  ALA120      0.0319
     31  N         21.3590   19.9530    5.2780 N.3   156  PHE156     -0.1241
     32  CA        20.4820   21.1140    5.2160 C.3   156  PHE156      0.1605
     33  C         20.5130   21.8630    6.5690 C.2   156  PHE156      0.2264
     34  O         19.4570   22.1600    7.1710 O.2   156  PHE156     -0.2867
     35  CB        19.0370   20.7500    4.8150 C.3   156  PHE156      0.0534
     36  CG        18.9370   19.9980    3.4690 C.ar  156  PHE156     -0.0203
     37  CD1       19.0870   18.6250    3.4150 C.ar  156  PHE156     -0.0042
     38  CD2       18.7510   20.6880    2.2880 C.ar  156  PHE156     -0.0042
     39  CE1       19.0530   17.9430    2.2040 C.ar  156  PHE156     -0.0003
     40  CE2       18.6830   19.9970    1.0440 C.ar  156  PHE156     -0.0003
     41  CZ        18.8290   18.6220    1.0210 C.ar  156  PHE156     -0.0000
     42  N         21.7900   25.2000    8.7960 N.3   158  TRP158     -0.1241
     43  CA        22.2780   26.5670    8.8690 C.3   158  TRP158      0.1605
     44  C         21.5470   27.2940   10.0200 C.2   158  TRP158      0.2264
     45  O         20.5860   26.7570   10.6080 O.2   158  TRP158     -0.2867
     46  CB        22.0170   27.2880    7.5140 C.3   158  TRP158      0.0550
     47  CG        20.6390   27.0680    7.0530 C.ar  158  TRP158      0.0003
     48  CD1       19.5090   27.6360    7.5780 C.ar  158  TRP158      0.0946
     49  CD2       20.1910   26.1830    6.0120 C.ar  158  TRP158      0.0152
     50  NE1       18.3900   27.1930    6.9140 N.ar  158  TRP158     -0.2442
     51  CE2       18.7750   26.2870    5.9510 C.ar  158  TRP158      0.0810
     52  CE3       20.8420   25.3270    5.1170 C.ar  158  TRP158      0.0012
     53  CZ2       17.9960   25.5660    5.0290 C.ar  158  TRP158      0.0191
     54  CZ3       20.0690   24.5900    4.1880 C.ar  158  TRP158      0.0001
     55  CH2       18.6620   24.7280    4.1450 C.ar  158  TRP158      0.0015
     56  N         18.8470   29.0790   12.2200 N.3   160  HIS160     -0.1241
     57  CA        17.4290   29.2670   12.1920 C.3   160  HIS160      0.1621
     58  C         17.0350   29.9710   13.4900 C.2   160  HIS160      0.2264
     59  O         15.9140   30.4500   13.5730 O.2   160  HIS160     -0.2867
     60  CB        16.6960   27.9410   11.8830 C.3   160  HIS160      0.0745
     61  CG        15.1950   27.9920   11.9470 C.ar  160  HIS160      0.0817
     62  ND1       14.4360   27.6820   13.0400 N.ar  160  HIS160     -0.2268
     63  CD2       14.2440   28.2270   11.1650 C.ar  160  HIS160      0.1154
     64  CE1       13.0020   27.8110   12.7310 C.ar  160  HIS160      0.1986
     65  NE2       13.0390   28.2540   11.3380 N.ar  160  HIS160     -0.2212
     66  N         16.4720   32.9950   16.0700 N.3   162  LYS162     -0.1245
     67  CA        16.0220   34.3950   15.8650 C.3   162  LYS162      0.1561
     68  C         16.1510   35.0810   17.2420 C.2   162  LYS162      0.2260
     69  O         15.2920   34.8930   18.1360 O.2   162  LYS162     -0.2867
     70  CB        14.5740   34.4330   15.3470 C.3   162  LYS162      0.0271
     71  CG        14.3480   33.5340   14.0650 C.3   162  LYS162      0.0035
     72  CD        13.0250   32.8770   14.0750 C.3   162  LYS162      0.0206
     73  CE        12.8710   31.6590   13.1550 C.3   162  LYS162      0.1093
     74  NZ        13.7510   31.5890   11.9940 N.3   162  LYS162     -0.1314
     75  N         10.7550   35.7100   11.9970 N.3   177  ASN177     -0.1240
     76  CA        11.7540   36.1520   10.9950 C.3   177  ASN177      0.1653
     77  C         11.4110   37.6020   10.6760 C.2   177  ASN177      0.2266
     78  O         10.2570   37.9840   10.7560 O.2   177  ASN177     -0.2867
     79  CB        11.6790   35.2440    9.7370 C.3   177  ASN177      0.1155
     80  CG        12.1650   33.8350   10.0240 C.2   177  ASN177      0.2627
     81  OD1       13.2400   33.6830   10.6050 O.2   177  ASN177     -0.2716
     82  ND2       11.4100   32.8060    9.5990 N.am  177  ASN177     -0.0877
     83  N         10.8520   39.5270    8.2380 N.3   179  TRP179     -0.1241
     84  CA        10.4630   39.4830    6.8260 C.3   179  TRP179      0.1605
     85  C          9.1980   40.3310    6.6310 C.2   179  TRP179      0.2264
     86  O          8.1260   39.9340    7.0380 O.2   179  TRP179     -0.2867
     87  CB        10.1850   38.0190    6.3540 C.3   179  TRP179      0.0550
     88  CG        11.3430   37.0360    6.4100 C.ar  179  TRP179      0.0003
     89  CD1       12.6420   37.2870    6.6490 C.ar  179  TRP179      0.0946
     90  CD2       11.2330   35.6030    6.2800 C.ar  179  TRP179      0.0152
     91  NE1       13.3710   36.1170    6.6300 N.ar  179  TRP179     -0.2442
     92  CE2       12.5180   35.0660    6.4580 C.ar  179  TRP179      0.0810
     93  CE3       10.1760   34.7450    6.1110 C.ar  179  TRP179      0.0012
     94  CZ2       12.7860   33.7020    6.3720 C.ar  179  TRP179      0.0191
     95  CZ3       10.4240   33.3780    6.0220 C.ar  179  TRP179      0.0001
     96  CH2       11.7360   32.8700    6.1710 C.ar  179  TRP179      0.0015
     97  N          3.8430   25.5570   13.4110 N.3   328  GLN328     -0.1245
     98  CA         3.5290   25.4920   11.9930 C.3   328  GLN328      0.1566
     99  C          3.1160   24.0940   11.6430 C.2   328  GLN328      0.2260
    100  O          2.1030   23.8980   10.9520 O.2   328  GLN328     -0.2867
    101  CB         4.7230   25.9440   11.1420 C.3   328  GLN328      0.0367
    102  CG         4.3760   26.0490    9.6990 C.3   328  GLN328      0.0905
    103  CD         5.6240   26.2540    8.8350 C.2   328  GLN328      0.2608
    104  OE1        6.2520   27.2770    8.9040 O.2   328  GLN328     -0.2717
    105  NE2        5.9820   25.2410    8.0500 N.am  328  GLN328     -0.0878
    106  N         13.9570   15.0870    5.1430 N.3   337  LEU337     -0.1245
    107  CA        13.8290   14.8680    6.5680 C.3   337  LEU337      0.1561
    108  C         12.9070   13.6970    6.7960 C.2   337  LEU337      0.2260
    109  O         11.9960   13.4600    5.9790 O.2   337  LEU337     -0.2867
    110  CB        13.1750   16.0710    7.2330 C.3   337  LEU337      0.0270
    111  CG        14.0460   17.2720    7.6220 C.3   337  LEU337      0.0019
    112  CD1       15.1820   16.9560    8.5490 C.3   337  LEU337      0.0001
    113  CD2       14.5740   18.0080    6.3830 C.3   337  LEU337      0.0001
    114  N          3.9580   27.5230    4.5280 N.3   370  TYR370     -0.1241
    115  CA         3.5730   27.4270    5.9390 C.3   370  TYR370      0.1605
    116  C          2.7270   26.2090    6.3270 C.2   370  TYR370      0.2264
    117  O          1.9340   26.2780    7.2600 O.2   370  TYR370     -0.2867
    118  CB         2.9250   28.7390    6.3770 C.3   370  TYR370      0.0534
    119  CG         3.8890   29.8940    6.4430 C.ar  370  TYR370     -0.0201
    120  CD1        4.0530   30.7800    5.3740 C.ar  370  TYR370     -0.0009
    121  CD2        4.6400   30.1160    7.5810 C.ar  370  TYR370     -0.0009
    122  CE1        4.9440   31.8110    5.4480 C.ar  370  TYR370      0.0417
    123  CE2        5.5270   31.1230    7.6670 C.ar  370  TYR370      0.0417
    124  CZ         5.6990   31.9870    6.6130 C.ar  370  TYR370      0.1957
    125  OH         6.5840   33.0350    6.7620 O.3   370  TYR370     -0.2866
    126  N          3.2360   21.5200    5.9820 N.3   372  GLN372     -0.1245
    127  CA         3.8990   20.3590    5.4080 C.3   372  GLN372      0.1566
    128  C          3.0540   19.1000    5.4630 C.2   372  GLN372      0.2260
    129  O          3.5810   17.9870    5.3020 O.2   372  GLN372     -0.2867
    130  CB         5.2530   20.1150    6.1140 C.3   372  GLN372      0.0367
    131  CG         6.2330   21.3050    5.9870 C.3   372  GLN372      0.0905
    132  CD         7.4620   21.1130    6.8200 C.2   372  GLN372      0.2608
    133  OE1        8.4500   20.5690    6.3480 O.2   372  GLN372     -0.2717
    134  NE2        7.4150   21.5580    8.0610 N.am  372  GLN372     -0.0878
    135  N          3.1480   30.2290   12.6810 N.3   427  HIS427     -0.1241
    136  CA         4.6030   29.9340   12.6400 C.3   427  HIS427      0.1621
    137  C          5.2120   29.8750   14.0590 C.2   427  HIS427      0.2264
    138  O          6.4340   29.7720   14.1730 O.2   427  HIS427     -0.2867
    139  CB         5.2790   30.9540   11.7560 C.3   427  HIS427      0.0745
    140  CG         6.7300   30.7020   11.4310 C.ar  427  HIS427      0.0817
    141  ND1        7.7490   31.3600   12.0820 N.ar  427  HIS427     -0.2268
    142  CD2        7.3160   29.9850   10.4420 C.ar  427  HIS427      0.1154
    143  CE1        8.9100   31.0070   11.5470 C.ar  427  HIS427      0.1986
    144  NE2        8.6750   30.1870   10.5300 N.ar  427  HIS427     -0.2212
    145  N          6.5750   28.5270   17.6120 N.3   429  LYS429     -0.1245
    146  CA         7.2260   27.3150   18.1500 C.3   429  LYS429      0.1561
    147  C          7.0390   27.3440   19.6580 C.2   429  LYS429      0.2260
    148  O          7.9210   27.8030   20.4440 O.2   429  LYS429     -0.2867
    149  CB         8.7000   27.2730   17.7970 C.3   429  LYS429      0.0271
    150  CG         9.0610   27.3170   16.3270 C.3   429  LYS429      0.0035
    151  CD         9.1100   28.7720   15.7850 C.3   429  LYS429      0.0206
    152  CE         9.6730   28.7740   14.3480 C.3   429  LYS429      0.1093
    153  NZ         8.7540   28.2010   13.3300 N.3   429  LYS429     -0.1314
    154  N         11.4090   24.1980   15.8990 N.3   444  ASN444     -0.1240
    155  CA        10.1970   23.5120   15.4900 C.3   444  ASN444      0.1653
    156  C         10.1250   22.1160   16.0620 C.2   444  ASN444      0.2266
    157  O         11.1560   21.5110   16.2910 O.2   444  ASN444     -0.2867
    158  CB        10.1660   23.3940   13.9940 C.3   444  ASN444      0.1155
    159  CG         9.9810   24.7570   13.3290 C.2   444  ASN444      0.2627
    160  OD1        8.9310   25.3290   13.4560 O.2   444  ASN444     -0.2716
    161  ND2       11.0040   25.2500   12.6250 N.am  444  ASN444     -0.0877
    162  N          8.7320   19.6830   14.3740 N.3   446  TYR446     -0.1241
    163  CA         8.9390   18.7940   13.2180 C.3   446  TYR446      0.1605
    164  C         10.4220   18.5650   12.9990 C.2   446  TYR446      0.2264
    165  O         11.1960   19.4360   13.3820 O.2   446  TYR446     -0.2867
    166  CB         8.2370   19.3460   11.9670 C.3   446  TYR446      0.0534
    167  CG         8.7000   20.6880   11.3720 C.ar  446  TYR446     -0.0201
    168  CD1        9.8490   20.7920   10.5640 C.ar  446  TYR446     -0.0009
    169  CD2        7.9900   21.8420   11.6150 C.ar  446  TYR446     -0.0009
    170  CE1       10.2260   22.0410    9.9870 C.ar  446  TYR446      0.0417
    171  CE2        8.3460   23.0700   11.0240 C.ar  446  TYR446      0.0417
    172  CZ         9.4760   23.1550   10.2510 C.ar  446  TYR446      0.1957
    173  OH         9.7990   24.3600    9.6430 O.3   446  TYR446     -0.2866
    174  N         14.0830   18.6740   12.0130 N.3   448  SER448     -0.1217
    175  CA        14.8260   19.8290   11.5690 C.3   448  SER448      0.1889
    176  C         16.2140   19.7320   12.2070 C.2   448  SER448      0.2288
    177  O         16.3310   19.4750   13.4140 O.2   448  SER448     -0.2866
    178  CB        14.1200   21.1680   11.9380 C.3   448  SER448      0.2089
    179  OG        13.5460   21.1940   13.3010 O.3   448  SER448     -0.2183
    180  N         18.8690   22.1330   12.3020 N.3   450  LEU450     -0.1245
    181  CA        19.3610   23.5010   12.1800 C.3   450  LEU450      0.1561
    182  C         19.9530   23.9940   13.5020 C.2   450  LEU450      0.2260
    183  O         19.7590   23.3490   14.5670 O.2   450  LEU450     -0.2867
    184  CB        18.1580   24.4200   11.8280 C.3   450  LEU450      0.0270
    185  CG        17.2990   23.9970   10.6150 C.3   450  LEU450      0.0019
    186  CD1       16.0230   24.8650   10.3990 C.3   450  LEU450      0.0001
    187  CD2       18.1040   24.0440    9.3580 C.3   450  LEU450      0.0001
@<TRIPOS>BOND
     1    29    28    2
     2    30    27    1
     3    41    40   ar
     4    41    39   ar
     5    40    38   ar
     6    28    27    1
     7    27    26    1
     8    39    37   ar
     9    38    36   ar
    10    19    18    1
    11    19    20    1
    12    26    23   am
    13    18    15    1
    14    37    36   ar
    15    36    35    1
    16    20    14    1
    17    23    24    2
    18    23    22    1
    19    25    22    1
    20    55    54   ar
    21    55    53   ar
    22    54    52   ar
    23    15    14    1
    24    15    16    1
    25    14    11   am
    26    22    21    1
    27   114   115    1
    28    13    10    1
    29    35    32    1
    30    12    11    2
    31    11    10    1
    32    53    51   ar
    33    52    49   ar
    34   106   107    1
    35    32    31    1
    36    32    33    1
    37   129   128    2
    38   120   122   ar
    39   120   119   ar
    40   127   128    1
    41   127   126    1
    42   127   130    1
    43   122   124   ar
    44    16    17    2
    45    10     9    1
    46   115   116    1
    47   115   118    1
    48    51    49   ar
    49    51    50   ar
    50   109   108    2
    51   131   130    1
    52   131   132    1
    53    49    47   ar
    54    95    93   ar
    55    95    96   ar
    56    93    90   ar
    57    96    94   ar
    58    90    88   ar
    59    90    92   ar
    60   116   117    2
    61   133   132    2
    62    87    88    1
    63    87    84    1
    64    94    92   ar
    65   118   119    1
    66   113   111    1
    67    88    89   ar
    68   119   121   ar
    69    92    91   ar
    70   107   108    1
    71   107   110    1
    72    33    34    2
    73   124   125    1
    74   124   123   ar
    75    91    89   ar
    76    85    84    1
    77    85    86    2
    78   132   134   am
    79    84    83    1
    80     9     3   am
    81    50    48   ar
    82    47    46    1
    83    47    48   ar
    84   110   111    1
    85    46    43    1
    86   121   123   ar
    87   111   112    1
    88     7     6    1
    89     8     6    1
    90     6     5    1
    91     3     4    2
    92     3     2    1
    93   105   103   am
    94    42    43    1
    95   103   104    2
    96   103   102    1
    97    43    44    1
    98     5     2    1
    99     2     1    1
   100   187   185    1
   101    82    80   am
   102   173   172    1
   103   102   101    1
   104    79    80    1
   105    79    76    1
   106   170   172   ar
   107   170   168   ar
   108    44    45    2
   109    80    81    2
   110   172   171   ar
   111   186   185    1
   112   142   144   ar
   113   142   140   ar
   114   144   143   ar
   115   168   167   ar
   116   185   184    1
   117    77    78    2
   118    77    76    1
   119   100    99    2
   120    76    75    1
   121   171   169   ar
   122   101    98    1
   123    63    65   ar
   124    63    61   ar
   125    65    64   ar
   126   167   169   ar
   127   167   166    1
   128   140   139    1
   129   140   141   ar
   130   143   141   ar
   131   175   178    1
   132   175   174    1
   133   175   176    1
   134    99    98    1
   135   139   136    1
   136   184   181    1
   137    60    61    1
   138    60    57    1
   139   178   179    1
   140    61    62   ar
   141   166   163    1
   142    98    97    1
   143    74    73    1
   144   181   180    1
   145   181   182    1
   146    57    56    1
   147    57    58    1
   148   176   177    2
   149   161   159   am
   150   136   135    1
   151   136   137    1
   152    64    62   ar
   153   164   163    1
   154   164   165    2
   155    73    72    1
   156   163   162    1
   157   159   160    2
   158   159   158    1
   159   153   152    1
   160    58    59    2
   161   182   183    2
   162   158   155    1
   163   137   138    2
   164    71    72    1
   165    71    70    1
   166   152   151    1
   167    70    67    1
   168   155   154    1
   169   155   156    1
   170   151   150    1
   171    67    66    1
   172    67    68    1
   173   156   157    2
   174   150   149    1
   175    68    69    2
   176   145   146    1
   177   149   146    1
   178   146   147    1
   179   147   148    2
