@<TRIPOS>MOLECULE
tmp/1v0zC02.pdb
 79 73 0 0 0
SMALL
GASTEIGER

@<TRIPOS>ATOM
      1  N         54.4530   -2.4690   62.3790 N.3    17  HIS17      -0.1241
      2  CA        53.0520   -2.1940   61.9720 C.3    17  HIS17       0.1621
      3  C         52.2080   -1.8360   63.2000 C.2    17  HIS17       0.2264
      4  O         52.5070   -2.2710   64.3220 O.2    17  HIS17      -0.2867
      5  CB        52.4360   -3.3970   61.2170 C.3    17  HIS17       0.0745
      6  CG        52.0060   -4.5250   62.1090 C.ar   17  HIS17       0.0817
      7  ND1       50.7900   -4.5370   62.7630 N.ar   17  HIS17      -0.2268
      8  CD2       52.6270   -5.6740   62.4550 C.ar   17  HIS17       0.1154
      9  CE1       50.6800   -5.6460   63.4660 C.ar   17  HIS17       0.1986
     10  NE2       51.7860   -6.3470   63.3100 N.ar   17  HIS17      -0.2212
     11  N         49.4380   -2.1260   65.8760 N.3    19  LEU19      -0.1245
     12  CA        48.6370   -3.1740   66.5640 C.3    19  LEU19       0.1561
     13  C         47.3630   -2.5910   67.1970 C.2    19  LEU19       0.2260
     14  O         46.2420   -3.0820   66.9700 O.2    19  LEU19      -0.2867
     15  CB        49.4750   -3.8400   67.6570 C.3    19  LEU19       0.0270
     16  CG        48.7910   -5.0310   68.3480 C.3    19  LEU19       0.0019
     17  CD1       48.7950   -6.2460   67.4160 C.3    19  LEU19       0.0001
     18  CD2       49.5090   -5.3170   69.6700 C.3    19  LEU19       0.0001
     19  N         52.8680  -11.6300   71.8590 N.3   331  ASP331     -0.1239
     20  CA        51.7810  -12.5940   71.8310 C.3   331  ASP331      0.1674
     21  C         52.3850  -14.0040   71.6870 C.2   331  ASP331      0.2266
     22  O         52.5190  -14.5320   70.5810 O.2   331  ASP331     -0.2867
     23  CB        50.7510  -12.3100   70.7290 C.3   331  ASP331      0.1410
     24  CG        49.6150  -13.3500   70.7150 C.2   331  ASP331      0.3668
     25  OD1       49.5300  -14.1920   71.6490 O.co2 331  ASP331     -0.2456
     26  OD2       48.7950  -13.3280   69.7740 O.co2 331  ASP331     -0.2456
     27  N         50.4930  -16.7620   69.5120 N.3   334  ALA334     -0.1245
     28  CA        50.2370  -16.5780   68.0790 C.3   334  ALA334      0.1562
     29  C         50.5130  -17.8690   67.3060 C.2   334  ALA334      0.2260
     30  O         51.3270  -18.6920   67.7400 O.2   334  ALA334     -0.2867
     31  CB        51.0680  -15.4050   67.5180 C.3   334  ALA334      0.0290
     32  N         52.2990  -18.8840   64.8050 N.3   336  LYS336     -0.1245
     33  CA        53.5230  -18.4960   64.0940 C.3   336  LYS336      0.1561
     34  C         54.6940  -19.3390   64.6100 C.2   336  LYS336      0.2260
     35  O         54.7130  -19.7050   65.7810 O.2   336  LYS336     -0.2867
     36  CB        53.8270  -17.0120   64.3360 C.3   336  LYS336      0.0271
     37  CG        53.8130  -16.1370   63.0950 C.3   336  LYS336      0.0035
     38  CD        53.8740  -14.6350   63.4170 C.3   336  LYS336      0.0206
     39  CE        52.4770  -13.9990   63.2760 C.3   336  LYS336      0.1093
     40  NZ        52.4670  -12.5200   63.4920 N.3   336  LYS336     -0.1314
     41  N         56.9830  -12.9340   67.7590 N.3   340  ASN340     -0.1240
     42  CA        57.1290  -11.6370   67.0880 C.3   340  ASN340      0.1653
     43  C         57.1630  -10.4780   68.0910 C.2   340  ASN340      0.2266
     44  O         56.1900  -10.2790   68.8270 O.2   340  ASN340     -0.2867
     45  CB        56.0010  -11.4440   66.0510 C.3   340  ASN340      0.1155
     46  CG        56.2040  -10.2180   65.1500 C.2   340  ASN340      0.2627
     47  OD1       55.2430   -9.5040   64.8380 O.2   340  ASN340     -0.2716
     48  ND2       57.4220  -10.0060   64.6970 N.am  340  ASN340     -0.0877
     49  N         56.6580   -7.1630   70.0690 N.3   342  CYS342     -0.1235
     50  CA        55.7540   -5.9860   70.1140 C.3   342  CYS342      0.1677
     51  C         56.2290   -5.0100   71.1770 C.2   342  CYS342      0.2270
     52  O         56.9930   -5.3790   72.0680 O.2   342  CYS342     -0.2867
     53  CB        54.2990   -6.3970   70.4190 C.3   342  CYS342      0.0956
     54  SG        53.5890   -7.6090   69.2890 S.3   342  CYS342     -0.0801
     55  N         53.8370   -3.9980   66.4410 N.3   368  CYS368     -0.1221
     56  CA        54.5810   -5.2490   66.4050 C.3   368  CYS368      0.1808
     57  C         55.4190   -5.3340   65.1370 C.2   368  CYS368      0.2602
     58  O         55.1630   -4.6310   64.1660 O.2   368  CYS368     -0.2717
     59  CB        53.6390   -6.4570   66.4530 C.3   368  CYS368      0.0970
     60  SG        52.5410   -6.5440   67.9010 S.3   368  CYS368     -0.0800
     61  N         56.3930   -6.2420   65.1510 N.am  369  GLY369     -0.1942
     62  CA        57.3060   -6.4180   64.0240 C.3   369  GLY369      0.2014
     63  C         56.6170   -6.8130   62.7280 C.2   369  GLY369      0.2640
     64  O         55.5930   -7.5050   62.7350 O.2   369  GLY369     -0.2714
     65  N         57.1840   -6.3450   61.6170 N.am  370  SER370     -0.1935
     66  CA        56.9080   -6.9000   60.3010 C.3   370  SER370      0.2055
     67  C         58.2270   -7.2800   59.6000 C.2   370  SER370      0.2642
     68  O         59.2710   -6.6210   59.7780 O.2   370  SER370     -0.2714
     69  CB        56.1280   -5.8940   59.4330 C.3   370  SER370      0.2130
     70  OG        55.9020   -6.4170   58.1200 O.3   370  SER370     -0.2179
     71  N         58.1660   -8.3160   58.7800 N.am  371  LYS371     -0.1977
     72  CA        59.2870   -8.6170   57.8600 C.3   371  LYS371      0.1596
     73  C         59.2950   -7.7530   56.6110 C.2   371  LYS371      0.2287
     74  O         60.3220   -7.6490   55.9240 O.2   371  LYS371     -0.2864
     75  CB        59.2700  -10.0800   57.4460 C.3   371  LYS371      0.0298
     76  CG        59.6110  -11.0220   58.5460 C.3   371  LYS371      0.0038
     77  CD        59.7010  -12.4790   58.0580 C.3   371  LYS371      0.0206
     78  CE        61.0100  -12.7340   57.3170 C.3   371  LYS371      0.1093
     79  NZ        60.8680  -12.9700   55.8390 N.3   371  LYS371     -0.1314
@<TRIPOS>BOND
     1    79    78    1
     2    74    73    2
     3    73    72    1
     4    78    77    1
     5    75    72    1
     6    75    76    1
     7    72    71    1
     8    77    76    1
     9    70    69    1
    10    71    67   am
    11    69    66    1
    12    67    68    2
    13    67    66    1
    14    66    65    1
    15     5     2    1
    16     5     6    1
    17    65    63   am
    18     2     1    1
    19     2     3    1
    20     6     8   ar
    21     6     7   ar
    22     8    10   ar
    23    63    64    2
    24    63    62    1
    25     7     9   ar
    26    37    38    1
    27    37    36    1
    28     3     4    2
    29    39    38    1
    30    39    40    1
    31    10     9   ar
    32    62    61    1
    33    33    36    1
    34    33    34    1
    35    33    32    1
    36    58    57    2
    37    34    35    2
    38    48    46   am
    39    47    46    2
    40    57    61   am
    41    57    56    1
    42    46    45    1
    43    11    12    1
    44    45    42    1
    45    56    55    1
    46    56    59    1
    47    59    60    1
    48    12    13    1
    49    12    15    1
    50    14    13    2
    51    42    41    1
    52    42    43    1
    53    29    30    2
    54    29    28    1
    55    17    16    1
    56    31    28    1
    57    15    16    1
    58    60    54    1
    59    28    27    1
    60    43    44    2
    61    16    18    1
    62    54    53    1
    63    26    24   ar
    64    49    50    1
    65    50    53    1
    66    50    51    1
    67    22    21    2
    68    24    23    1
    69    24    25   ar
    70    23    20    1
    71    51    52    2
    72    21    20    1
    73    20    19    1
