@<TRIPOS>MOLECULE
tmp/1v0zC00.pdb
 123 119 0 0 0
SMALL
GASTEIGER

@<TRIPOS>ATOM
      1  N         61.9150   -6.0090   60.2180 N.3    14  ASN14      -0.1225
      2  CA        62.4220   -4.9630   59.3150 C.3    14  ASN14       0.1785
      3  C         61.6650   -3.6330   59.3840 C.2    14  ASN14       0.2597
      4  O         62.1860   -2.5850   58.9890 O.2    14  ASN14      -0.2718
      5  CB        62.4710   -5.5060   57.8720 C.3    14  ASN14       0.1169
      6  CG        63.3840   -6.7310   57.7410 C.2    14  ASN14       0.2627
      7  OD1       64.5210   -6.7090   58.2180 O.2    14  ASN14      -0.2716
      8  ND2       62.8910   -7.7980   57.1040 N.am   14  ASN14      -0.0877
      9  N         60.4550   -3.6870   59.9440 N.am   15  SER15      -0.1952
     10  CA        59.5000   -2.5880   59.9890 C.3    15  SER15       0.1924
     11  C         58.5990   -2.8500   61.2190 C.2    15  SER15       0.2314
     12  O         58.5720   -3.9840   61.7270 O.2    15  SER15      -0.2863
     13  CB        58.6110   -2.6710   58.7300 C.3    15  SER15       0.2116
     14  OG        58.1270   -1.4100   58.4170 O.3    15  SER15      -0.2180
     15  N         66.7560   -4.3440   67.8350 N.3   281  TRP281     -0.1241
     16  CA        66.0400   -3.0780   67.7220 C.3   281  TRP281      0.1605
     17  C         65.9790   -2.3680   69.0760 C.2   281  TRP281      0.2264
     18  O         65.6290   -2.9810   70.0800 O.2   281  TRP281     -0.2867
     19  CB        64.6150   -3.3130   67.2430 C.3   281  TRP281      0.0550
     20  CG        64.4530   -3.5850   65.7710 C.ar  281  TRP281      0.0003
     21  CD1       64.4840   -4.8090   65.1430 C.ar  281  TRP281      0.0946
     22  CD2       64.1910   -2.6120   64.7510 C.ar  281  TRP281      0.0152
     23  NE1       64.2740   -4.6410   63.7810 N.ar  281  TRP281     -0.2442
     24  CE2       64.0640   -3.3080   63.5260 C.ar  281  TRP281      0.0810
     25  CE3       64.0450   -1.2150   64.7560 C.ar  281  TRP281      0.0012
     26  CZ2       63.8110   -2.6450   62.3120 C.ar  281  TRP281      0.0191
     27  CZ3       63.7730   -0.5580   63.5510 C.ar  281  TRP281      0.0001
     28  CH2       63.6600   -1.2770   62.3480 C.ar  281  TRP281      0.0015
     29  N         63.8900    4.4420   71.7670 N.3   284  ARG284     -0.1245
     30  CA        64.2240    5.5810   72.6340 C.3   284  ARG284      0.1563
     31  C         63.3770    6.7940   72.2810 C.2   284  ARG284      0.2260
     32  O         62.7970    6.8570   71.1840 O.2   284  ARG284     -0.2867
     33  CB        65.7390    5.8990   72.5850 C.3   284  ARG284      0.0307
     34  CG        66.2310    6.4330   71.2440 C.3   284  ARG284      0.0489
     35  CD        67.7550    6.7030   71.2970 C.3   284  ARG284      0.2205
     36  NE        68.2220    7.3870   70.0860 N.pl3 284  ARG284     -0.0865
     37  CZ        69.4950    7.7240   69.8690 C.cat 284  ARG284      0.5346
     38  NH1       70.4170    7.4700   70.7970 N.pl3 284  ARG284      0.1354
     39  NH2       69.8430    8.3480   68.7360 N.pl3 284  ARG284      0.1354
     40  N         61.3250    6.7590   68.6750 N.3   295  GLU295     -0.1245
     41  CA        61.9090    6.1570   67.4720 C.3   295  GLU295      0.1567
     42  C         62.3630    4.7340   67.7180 C.2   295  GLU295      0.2260
     43  O         62.8130    4.4050   68.8240 O.2   295  GLU295     -0.2867
     44  CB        63.0910    7.0080   66.9590 C.3   295  GLU295      0.0388
     45  CG        64.2930    7.0890   67.9240 C.3   295  GLU295      0.1160
     46  CD        65.3620    8.1250   67.5130 C.2   295  GLU295      0.3649
     47  OE1       65.3660    8.5790   66.3400 O.co2 295  GLU295     -0.2457
     48  OE2       66.1990    8.4620   68.3770 O.co2 295  GLU295     -0.2457
     49  N         65.1650    2.0320   66.3830 N.3   297  LEU297     -0.1245
     50  CA        66.4360    1.9340   65.6420 C.3   297  LEU297      0.1561
     51  C         66.9170    0.4820   65.5290 C.2   297  LEU297      0.2260
     52  O         67.0080   -0.2320   66.5350 O.2   297  LEU297     -0.2867
     53  CB        67.5090    2.8110   66.3020 C.3   297  LEU297      0.0270
     54  CG        67.0990    4.2460   66.6430 C.3   297  LEU297      0.0019
     55  CD1       68.0920    4.8860   67.6270 C.3   297  LEU297      0.0001
     56  CD2       66.9520    5.1110   65.3820 C.3   297  LEU297      0.0001
     57  N         72.9740    2.5000   64.1680 N.3   310  PRO310     -0.2102
     58  CA        71.7400    2.1520   63.4440 C.3   310  PRO310      0.1504
     59  C         71.9580    1.8750   61.9530 C.2   310  PRO310      0.2576
     60  O         72.8050    2.5270   61.3140 O.2   310  PRO310     -0.2718
     61  CB        70.8500    3.4070   63.6230 C.3   310  PRO310      0.0282
     62  CG        71.4620    4.1770   64.7620 C.3   310  PRO310      0.0208
     63  CD        72.9610    3.9140   64.5850 C.3   310  PRO310      0.0893
     64  N         71.2120    0.9070   61.4160 N.am  311  ILE311     -0.1966
     65  CA        71.1690    0.6610   59.9650 C.3   311  ILE311      0.1727
     66  C         69.7910    0.9920   59.3550 C.2   311  ILE311      0.2617
     67  O         69.6460    1.0940   58.1300 O.2   311  ILE311     -0.2715
     68  CB        71.5950   -0.7890   59.5970 C.3   311  ILE311      0.0290
     69  CG1       70.5490   -1.8280   60.0730 C.3   311  ILE311      0.0022
     70  CG2       73.0390   -1.0680   60.1040 C.3   311  ILE311      0.0023
     71  CD1       70.7100   -3.2300   59.4010 C.3   311  ILE311      0.0001
     72  N         68.7830    1.1280   60.2150 N.am  312  SER312     -0.1936
     73  CA        67.4750    1.6420   59.7930 C.3   312  SER312      0.2055
     74  C         66.7320    2.2750   60.9660 C.2   312  SER312      0.2643
     75  O         67.1300    2.1210   62.1320 O.2   312  SER312     -0.2714
     76  CB        66.6370    0.5680   59.0980 C.3   312  SER312      0.2130
     77  OG        66.4990   -0.5390   59.9240 O.3   312  SER312     -0.2179
     78  N         65.6830    3.0250   60.6500 N.am  313  ASN313     -0.1957
     79  CA        64.9420    3.7580   61.6560 C.3   313  ASN313      0.1819
     80  C         63.4700    3.8250   61.2960 C.2   313  ASN313      0.2621
     81  O         63.0940    3.7630   60.1130 O.2   313  ASN313     -0.2715
     82  CB        65.5070    5.1650   61.8500 C.3   313  ASN313      0.1195
     83  CG        65.0420    6.1430   60.7650 C.2   313  ASN313      0.2630
     84  OD1       63.9670    6.7390   60.8770 O.2   313  ASN313     -0.2716
     85  ND2       65.8510    6.3040   59.7100 N.am  313  ASN313     -0.0877
     86  N         62.6510    3.9360   62.3310 N.am  314  GLN314     -0.1977
     87  CA        61.2280    4.1990   62.1650 C.3   314  GLN314      0.1601
     88  C         60.7690    5.1360   63.2690 C.2   314  GLN314      0.2287
     89  O         60.9150    4.8290   64.4770 O.2   314  GLN314     -0.2864
     90  CB        60.4090    2.9130   62.1550 C.3   314  GLN314      0.0394
     91  CG        58.9430    3.1960   61.7340 C.3   314  GLN314      0.0908
     92  CD        58.1180    1.9450   61.6310 C.2   314  GLN314      0.2608
     93  OE1       58.6380    0.8700   61.3220 O.2   314  GLN314     -0.2717
     94  NE2       56.8240    2.0680   61.9320 N.am  314  GLN314     -0.0878
     95  N         58.8160   -4.0880   54.4950 N.3   373  ARG373     -0.1231
     96  CA        59.2050   -2.6910   54.6650 C.3   373  ARG373      0.1694
     97  C         57.9770   -1.8100   54.5470 C.2   373  ARG373      0.2592
     98  O         57.5650   -1.4310   53.4490 O.2   373  ARG373     -0.2718
     99  CB        60.2570   -2.2830   53.6240 C.3   373  ARG373      0.0321
    100  CG        61.3940   -3.2840   53.4740 C.3   373  ARG373      0.0489
    101  CD        62.2350   -3.3450   54.7370 C.3   373  ARG373      0.2205
    102  NE        63.4420   -4.1470   54.5540 N.pl3 373  ARG373     -0.0865
    103  CZ        64.6120   -3.8680   55.1260 C.cat 373  ARG373      0.5346
    104  NH1       64.7430   -2.7980   55.9140 N.pl3 373  ARG373      0.1354
    105  NH2       65.6560   -4.6590   54.9090 N.pl3 373  ARG373      0.1354
    106  N         57.3880   -1.4910   55.6940 N.am  374  LEU374     -0.1966
    107  CA        56.1480   -0.7360   55.7470 C.3   374  LEU374      0.1728
    108  C         56.4040    0.7490   55.9270 C.2   374  LEU374      0.2617
    109  O         57.3580    1.1640   56.6150 O.2   374  LEU374     -0.2715
    110  CB        55.2660   -1.2520   56.9010 C.3   374  LEU374      0.0311
    111  CG        54.9140   -2.7360   56.9480 C.3   374  LEU374      0.0022
    112  CD1       54.0930   -2.9950   58.1910 C.3   374  LEU374      0.0001
    113  CD2       54.1490   -3.1950   55.6650 C.3   374  LEU374      0.0001
    114  N         55.5500    1.5590   55.3150 N.am  375  GLY375     -0.1940
    115  CA        55.5510    2.9790   55.5670 C.3   375  GLY375      0.2014
    116  C         55.1010    3.2930   56.9780 C.2   375  GLY375      0.2639
    117  O         54.4810    2.4730   57.6370 O.2   375  GLY375     -0.2714
    118  N         55.4120    4.4920   57.4500 N.am  376  SER376     -0.1949
    119  CA        55.0150    4.8600   58.8150 C.3   376  SER376      0.1924
    120  C         54.4720    6.2660   58.9020 C.2   376  SER376      0.2314
    121  O         54.7020    7.0710   58.0040 O.2   376  SER376     -0.2863
    122  CB        56.2130    4.6890   59.7450 C.3   376  SER376      0.2116
    123  OG        57.2560    5.5460   59.3340 O.3   376  SER376     -0.2180
@<TRIPOS>BOND
     1    98    97    2
     2   100    99    1
     3   100   101    1
     4    99    96    1
     5    95    96    1
     6    97    96    1
     7    97   106   am
     8   102   101    1
     9   102   103    2
    10   105   103    1
    11   103   104    1
    12   114   115    1
    13   114   108   am
    14   115   116    1
    15   113   111    1
    16   106   107    1
    17   107   108    1
    18   107   110    1
    19   108   109    2
    20   110   111    1
    21   111   112    1
    22   116   118   am
    23   116   117    2
    24     8     6   am
    25   118   119    1
    26     6     5    1
    27     6     7    2
    28     5     2    1
    29   121   120    2
    30    67    66    2
    31    14    13    1
    32    13    10    1
    33   119   120    1
    34   119   122    1
    35     4     3    2
    36    76    73    1
    37    76    77    1
    38     2     3    1
    39     2     1    1
    40   123   122    1
    41    66    65    1
    42    66    72   am
    43     3     9   am
    44    71    69    1
    45    68    65    1
    46    68    69    1
    47    68    70    1
    48    85    83   am
    49    73    72    1
    50    73    74    1
    51     9    10    1
    52    65    64    1
    53    10    11    1
    54    81    80    2
    55    78    74   am
    56    78    79    1
    57    83    84    2
    58    83    82    1
    59    74    75    2
    60    11    12    2
    61    80    79    1
    62    80    86   am
    63    60    59    2
    64    93    92    2
    65    64    59   am
    66    92    91    1
    67    92    94   am
    68    79    82    1
    69    91    90    1
    70    59    58    1
    71    90    87    1
    72    87    86    1
    73    87    88    1
    74    26    28   ar
    75    26    24   ar
    76    28    27   ar
    77    88    89    2
    78    58    61    1
    79    58    57    1
    80    24    23   ar
    81    24    22   ar
    82    27    25   ar
    83    61    62    1
    84    23    21   ar
    85    57    63    1
    86    63    62    1
    87    22    25   ar
    88    22    20   ar
    89    21    20   ar
    90    56    54    1
    91    51    50    1
    92    51    52    2
    93    50    53    1
    94    50    49    1
    95    20    19    1
    96    53    54    1
    97    47    46   ar
    98    54    55    1
    99    44    41    1
   100    44    45    1
   101    19    16    1
   102    41    42    1
   103    41    40    1
   104    46    45    1
   105    46    48   ar
   106    42    43    2
   107    16    15    1
   108    16    17    1
   109    39    37    1
   110    17    18    2
   111    37    36    2
   112    37    38    1
   113    36    35    1
   114    32    31    2
   115    34    35    1
   116    34    33    1
   117    29    30    1
   118    31    30    1
   119    33    30    1
