@<TRIPOS>MOLECULE
tmp/1v0zB01.pdb
 119 114 0 0 0
SMALL
GASTEIGER

@<TRIPOS>ATOM
      1  N         -1.9440  -16.5610   97.5370 N.3    14  ASN14      -0.1225
      2  CA        -2.6340  -15.8590   98.6080 C.3    14  ASN14       0.1785
      3  C         -2.2080  -14.3950   98.8060 C.2    14  ASN14       0.2597
      4  O         -2.9590  -13.6060   99.3720 O.2    14  ASN14      -0.2718
      5  CB        -2.5210  -16.6820   99.9030 C.3    14  ASN14       0.1169
      6  CG        -3.2130  -18.0230   99.7710 C.2    14  ASN14       0.2627
      7  OD1       -4.3370  -18.0880   99.2770 O.2    14  ASN14      -0.2716
      8  ND2       -2.5430  -19.0850  100.1580 N.am   14  ASN14      -0.0877
      9  N         -1.0110  -14.0410   98.3290 N.am   15  SER15      -0.1952
     10  CA        -0.5110  -12.6480   98.3360 C.3    15  SER15       0.1924
     11  C          0.5990  -12.5560   97.2790 C.2    15  SER15       0.2314
     12  O          0.9000  -13.5510   96.6150 O.2    15  SER15      -0.2863
     13  CB        -0.0090  -12.1910   99.7180 C.3    15  SER15       0.2116
     14  OG         1.1280  -12.9510  100.1300 O.3    15  SER15      -0.2180
     15  N         -7.1110  -14.3760   90.4140 N.3   281  TRP281     -0.1241
     16  CA        -6.7040  -12.9970   90.7220 C.3   281  TRP281      0.1605
     17  C         -6.8560  -12.0570   89.5210 C.2   281  TRP281      0.2264
     18  O         -6.3950  -12.3650   88.3970 O.2   281  TRP281     -0.2867
     19  CB        -5.2450  -12.9610   91.1910 C.3   281  TRP281      0.0550
     20  CG        -5.0030  -13.4570   92.5890 C.ar  281  TRP281      0.0003
     21  CD1       -4.7600  -14.7620   92.9790 C.ar  281  TRP281      0.0946
     22  CD2       -4.9260  -12.6590   93.7760 C.ar  281  TRP281      0.0152
     23  NE1       -4.5640  -14.8130   94.3440 N.ar  281  TRP281     -0.2442
     24  CE2       -4.6470  -13.5370   94.8540 C.ar  281  TRP281      0.0810
     25  CE3       -5.0770  -11.2890   94.0390 C.ar  281  TRP281      0.0012
     26  CZ2       -4.5280  -13.0860   96.1720 C.ar  281  TRP281      0.0191
     27  CZ3       -4.9350  -10.8340   95.3530 C.ar  281  TRP281      0.0001
     28  CH2       -4.6510  -11.7350   96.3980 C.ar  281  TRP281      0.0015
     29  N         -6.2170   -4.5330   88.3780 N.3   284  ARG284     -0.1245
     30  CA        -6.7860   -3.3420   87.7280 C.3   284  ARG284      0.1563
     31  C         -6.2160   -2.0510   88.3320 C.2   284  ARG284      0.2260
     32  O         -5.6720   -2.0630   89.4570 O.2   284  ARG284     -0.2867
     33  CB        -8.3380   -3.3550   87.8190 C.3   284  ARG284      0.0307
     34  CG        -8.8890   -3.1930   89.2400 C.3   284  ARG284      0.0489
     35  CD       -10.4380   -3.0730   89.2090 C.3   284  ARG284      0.2205
     36  NE       -10.9950   -2.8980   90.5520 N.pl3 284  ARG284     -0.0865
     37  CZ       -12.2990   -2.9030   90.8390 C.cat 284  ARG284      0.5346
     38  NH1      -13.1970   -3.0600   89.8800 N.pl3 284  ARG284      0.1354
     39  NH2      -12.7040   -2.7200   92.0890 N.pl3 284  ARG284      0.1354
     40  N         -4.2030   -2.4440   91.9310 N.3   295  GLU295     -0.1245
     41  CA        -4.6430   -3.3740   92.9590 C.3   295  GLU295      0.1567
     42  C         -4.8130   -4.7980   92.4000 C.2   295  GLU295      0.2260
     43  O         -5.2320   -4.9840   91.2390 O.2   295  GLU295     -0.2867
     44  CB        -5.9580   -2.8560   93.5990 C.3   295  GLU295      0.0388
     45  CG        -7.1130   -2.6330   92.5710 C.3   295  GLU295      0.1160
     46  CD        -8.3750   -2.0990   93.2110 C.2   295  GLU295      0.3649
     47  OE1       -8.4380   -2.0680   94.4600 O.co2 295  GLU295     -0.2457
     48  OE2       -9.2950   -1.6820   92.4770 O.co2 295  GLU295     -0.2457
     49  N         -6.8950   -8.2820   93.1390 N.3   297  LEU297     -0.1245
     50  CA        -8.1430   -8.6900   93.7860 C.3   297  LEU297      0.1561
     51  C         -8.3130  -10.1870   93.6060 C.2   297  LEU297      0.2260
     52  O         -8.3320  -10.6780   92.4610 O.2   297  LEU297     -0.2867
     53  CB        -9.3430   -7.9400   93.1710 C.3   297  LEU297      0.0270
     54  CG        -9.2830   -6.4080   93.1870 C.3   297  LEU297      0.0019
     55  CD1      -10.4880   -5.8200   92.4490 C.3   297  LEU297      0.0001
     56  CD2       -9.1850   -5.8660   94.5890 C.3   297  LEU297      0.0001
     57  N        -14.5260   -9.8240   95.1900 N.3   310  PRO310     -0.2102
     58  CA       -13.2150   -9.9990   95.8500 C.3   310  PRO310      0.1504
     59  C        -13.3270  -10.4740   97.3030 C.2   310  PRO310      0.2576
     60  O        -14.2400  -10.0520   98.0200 O.2   310  PRO310     -0.2718
     61  CB       -12.6080   -8.5820   95.8260 C.3   310  PRO310      0.0282
     62  CG       -13.4590   -7.8050   94.8580 C.3   310  PRO310      0.0208
     63  CD       -14.8380   -8.4020   94.9880 C.3   310  PRO310      0.0893
     64  N        -12.3960  -11.3370   97.7150 N.am  311  ILE311     -0.1966
     65  CA       -12.3160  -11.8500   99.0810 C.3   311  ILE311      0.1727
     66  C        -11.0010  -11.3860   99.7410 C.2   311  ILE311      0.2617
     67  O        -10.8270  -11.4770  100.9520 O.2   311  ILE311     -0.2715
     68  CB       -12.5060  -13.4030   99.1090 C.3   311  ILE311      0.0290
     69  CG1      -11.3200  -14.1480   98.4440 C.3   311  ILE311      0.0022
     70  CG2      -13.8720  -13.7640   98.4500 C.3   311  ILE311      0.0023
     71  CD1      -11.1970  -15.6620   98.8170 C.3   311  ILE311      0.0001
     72  N        -10.0800  -10.8830   98.9280 N.am  312  SER312     -0.1936
     73  CA        -8.8830  -10.2160   99.4430 C.3   312  SER312      0.2055
     74  C         -8.3940   -9.1930   98.4110 C.2   312  SER312      0.2643
     75  O         -8.8050   -9.2190   97.2390 O.2   312  SER312     -0.2714
     76  CB        -7.7810  -11.2180   99.8020 C.3   312  SER312      0.2130
     77  OG        -7.2670  -11.7880   98.6270 O.3   312  SER312     -0.2179
     78  N         -7.5560   -8.2730   98.8620 N.am  313  ASN313     -0.1957
     79  CA        -6.9700   -7.2780   97.9710 C.3   313  ASN313      0.1819
     80  C         -5.5410   -6.9670   98.3800 C.2   313  ASN313      0.2621
     81  O         -5.1750   -7.1010   99.5520 O.2   313  ASN313     -0.2715
     82  CB        -7.8080   -6.0060   97.9360 C.3   313  ASN313      0.1195
     83  CG        -7.6870   -5.2010   99.2000 C.2   313  ASN313      0.2630
     84  OD1       -8.2510   -5.5590  100.2460 O.2   313  ASN313     -0.2716
     85  ND2       -6.9390   -4.1060   99.1240 N.am  313  ASN313     -0.0877
     86  N         -4.7260   -6.5860   97.4080 N.am  314  GLN314     -0.1977
     87  CA        -3.3780   -6.0860   97.7020 C.3   314  GLN314      0.1601
     88  C         -3.1150   -4.8660   96.8460 C.2   314  GLN314      0.2287
     89  O         -3.1970   -4.9560   95.6290 O.2   314  GLN314     -0.2864
     90  CB        -2.3150   -7.1550   97.4360 C.3   314  GLN314      0.0394
     91  CG        -0.9050   -6.7270   97.9090 C.3   314  GLN314      0.0908
     92  CD         0.1280   -7.8350   97.8310 C.2   314  GLN314      0.2608
     93  OE1       -0.1910   -9.0360   97.9140 O.2   314  GLN314     -0.2717
     94  NE2        1.3880   -7.4360   97.6440 N.am  314  GLN314     -0.0878
     95  N          0.8120  -15.2230  103.5910 N.3   373  ARG373     -0.1231
     96  CA         0.1100  -13.9470  103.7110 C.3   373  ARG373      0.1694
     97  C          1.1110  -12.8280  104.0150 C.2   373  ARG373      0.2591
     98  O          1.3970  -12.5060  105.1830 O.2   373  ARG373     -0.2718
     99  CB        -0.9770  -14.0330  104.7970 C.3   373  ARG373      0.0321
    100  CG        -2.3750  -14.1740  104.2530 C.3   373  ARG373      0.0489
    101  CD        -2.6900  -15.5840  103.8230 C.3   373  ARG373      0.2205
    102  NE        -4.0590  -15.6640  103.3090 N.pl3 373  ARG373     -0.0865
    103  CZ        -4.7210  -16.7960  103.0730 C.cat 373  ARG373      0.5346
    104  NH1       -5.9620  -16.7380  102.5970 N.pl3 373  ARG373      0.1354
    105  NH2       -4.1600  -17.9810  103.3130 N.pl3 373  ARG373      0.1354
    106  N          1.6710  -12.2480  102.9590 N.am  374  LEU374     -0.1980
    107  CA         2.7420  -11.2630  103.1210 C.3   374  LEU374      0.1596
    108  C          2.1800   -9.8550  103.2530 C.2   374  LEU374      0.2287
    109  O          1.1600   -9.5360  102.6480 O.2   374  LEU374     -0.2864
    110  CB         3.6850  -11.3100  101.9090 C.3   374  LEU374      0.0297
    111  CG         4.3500  -12.6460  101.5760 C.3   374  LEU374      0.0022
    112  CD1        5.1540  -12.4480  100.3080 C.3   374  LEU374      0.0001
    113  CD2        5.2530  -13.1280  102.7260 C.3   374  LEU374      0.0001
    114  N          2.2890   -5.6970  102.6240 N.3   376  SER376     -0.1217
    115  CA         2.4650   -5.0180  101.3310 C.3   376  SER376      0.1889
    116  C          2.8220   -3.5460  101.4630 C.2   376  SER376      0.2288
    117  O          2.5500   -2.9140  102.4870 O.2   376  SER376     -0.2866
    118  CB         1.2110   -5.2120  100.4700 C.3   376  SER376      0.2089
    119  OG         0.1770   -4.3730  100.9360 O.3   376  SER376     -0.2183
@<TRIPOS>BOND
     1    30    33    1
     2    30    31    1
     3    30    29    1
     4    33    34    1
     5    31    32    2
     6    18    17    2
     7    35    34    1
     8    35    36    1
     9    17    16    1
    10    38    37    1
    11    15    16    1
    12    36    37    2
    13    16    19    1
    14    37    39    1
    15    19    20    1
    16    43    42    2
    17    40    41    1
    18    42    41    1
    19    55    54    1
    20    52    51    2
    21    48    46   ar
    22    45    46    1
    23    45    44    1
    24    20    21   ar
    25    20    22   ar
    26    41    44    1
    27    21    23   ar
    28    49    50    1
    29    53    54    1
    30    53    50    1
    31    54    56    1
    32    46    47   ar
    33    51    50    1
    34    22    25   ar
    35    22    24   ar
    36    25    27   ar
    37    23    24   ar
    38    24    26   ar
    39    62    63    1
    40    62    61    1
    41    63    57    1
    42    57    58    1
    43    27    28   ar
    44    89    88    2
    45    61    58    1
    46    58    59    1
    47    26    28   ar
    48    12    11    2
    49    88    87    1
    50    75    74    2
    51    11    10    1
    52    59    64   am
    53    59    60    2
    54    86    87    1
    55    86    80   am
    56    90    87    1
    57    90    91    1
    58     1     2    1
    59    94    92   am
    60    64    65    1
    61    92    91    1
    62    92    93    2
    63    82    79    1
    64    82    83    1
    65    79    80    1
    66    79    78    1
    67     9    10    1
    68     9     3   am
    69    10    13    1
    70    80    81    2
    71    74    78   am
    72    74    73    1
    73    69    71    1
    74    69    68    1
    75    70    68    1
    76     2     3    1
    77     2     5    1
    78    77    76    1
    79     3     4    2
    80    72    73    1
    81    72    66   am
    82    65    68    1
    83    65    66    1
    84    85    83   am
    85    83    84    2
    86     7     6    2
    87    73    76    1
    88    13    14    1
    89    66    67    2
    90     6     5    1
    91     6     8   am
    92   112   111    1
    93   118   119    1
    94   118   115    1
    95   115   116    1
    96   115   114    1
    97   116   117    2
    98   111   110    1
    99   111   113    1
   100   110   107    1
   101   104   103    1
   102   109   108    2
   103   106   107    1
   104   106    97   am
   105   103   102    2
   106   103   105    1
   107   107   108    1
   108   102   101    1
   109    95    96    1
   110    96    97    1
   111    96    99    1
   112   101   100    1
   113    97    98    2
   114   100    99    1
