@<TRIPOS>MOLECULE
tmp/1v0zD00.pdb
 95 93 0 0 0
SMALL
GASTEIGER

@<TRIPOS>ATOM
      1  N         48.9340  -12.4960  111.0510 N.3    14  ASN14      -0.1225
      2  CA        49.8210  -11.5880  111.7670 C.3    14  ASN14       0.1785
      3  C         49.7140  -10.1270  111.3370 C.2    14  ASN14       0.2597
      4  O         50.1380   -9.2240  112.0600 O.2    14  ASN14      -0.2718
      5  CB        51.2560  -12.1200  111.6870 C.3    14  ASN14       0.1169
      6  CG        51.4130  -13.4210  112.4660 C.2    14  ASN14       0.2627
      7  OD1       51.0240  -13.4850  113.6290 O.2    14  ASN14      -0.2716
      8  ND2       51.9160  -14.4740  111.8080 N.am   14  ASN14      -0.0877
      9  N         49.1380   -9.9030  110.1650 N.am   15  SER15      -0.1952
     10  CA        48.8490   -8.5600  109.6430 C.3    15  SER15       0.1924
     11  C         47.8030   -8.7080  108.5320 C.2    15  SER15       0.2314
     12  O         47.2940   -9.8160  108.2760 O.2    15  SER15      -0.2863
     13  CB        50.1090   -7.8430  109.1390 C.3    15  SER15       0.2116
     14  OG        50.6330   -8.4700  108.0040 O.3    15  SER15      -0.2180
     15  N         41.3850  -11.7100  116.2770 N.3   281  TRP281     -0.1241
     16  CA        41.4790  -10.3210  115.8350 C.3   281  TRP281      0.1605
     17  C         40.1290   -9.6350  115.9280 C.2   281  TRP281      0.2264
     18  O         39.1160  -10.1650  115.4390 O.2   281  TRP281     -0.2867
     19  CB        41.9380  -10.2430  114.3840 C.3   281  TRP281      0.0550
     20  CG        43.4090  -10.5220  114.1330 C.ar  281  TRP281      0.0003
     21  CD1       43.9940  -11.7430  113.9000 C.ar  281  TRP281      0.0946
     22  CD2       44.4550   -9.5460  114.0420 C.ar  281  TRP281      0.0152
     23  NE1       45.3490  -11.5820  113.6720 N.ar  281  TRP281     -0.2442
     24  CE2       45.6580  -10.2450  113.7530 C.ar  281  TRP281      0.0810
     25  CE3       44.4950   -8.1450  114.1790 C.ar  281  TRP281      0.0012
     26  CZ2       46.8930   -9.5920  113.5930 C.ar  281  TRP281      0.0191
     27  CZ3       45.7360   -7.4920  114.0120 C.ar  281  TRP281      0.0001
     28  CH2       46.9140   -8.2220  113.7280 C.ar  281  TRP281      0.0015
     29  N         47.8930   -7.3620  121.5270 N.3   311  ILE311     -0.1231
     30  CA        49.3450   -7.5630  121.4140 C.3   311  ILE311      0.1692
     31  C         49.9120   -6.9360  120.1380 C.2   311  ILE311      0.2593
     32  O         51.1250   -6.7940  119.9820 O.2   311  ILE311     -0.2718
     33  CB        49.7520   -9.0520  121.5420 C.3   311  ILE311      0.0266
     34  CG1       49.2040   -9.9020  120.3710 C.3   311  ILE311      0.0019
     35  CG2       49.2980   -9.5640  122.8970 C.3   311  ILE311      0.0020
     36  CD1       49.7690  -11.3470  120.3090 C.3   311  ILE311      0.0001
     37  N         49.0180   -6.5710  119.2300 N.am  312  SER312     -0.1938
     38  CA        49.4260   -5.8400  118.0400 C.3   312  SER312      0.2055
     39  C         48.2350   -5.1010  117.4530 C.2   312  SER312      0.2643
     40  O         47.0850   -5.3630  117.8130 O.2   312  SER312     -0.2714
     41  CB        50.0970   -6.7700  117.0200 C.3   312  SER312      0.2130
     42  OG        49.1530   -7.6690  116.4940 O.3   312  SER312     -0.2179
     43  N         48.5260   -4.1440  116.5780 N.am  313  ASN313     -0.1957
     44  CA        47.4840   -3.3580  115.9500 C.3   313  ASN313      0.1819
     45  C         47.8650   -2.9570  114.5360 C.2   313  ASN313      0.2621
     46  O         49.0570   -2.8110  114.2170 O.2   313  ASN313     -0.2715
     47  CB        47.1770   -2.1040  116.7760 C.3   313  ASN313      0.1195
     48  CG        48.2410   -1.0530  116.6450 C.2   313  ASN313      0.2630
     49  OD1       48.0540   -0.0470  115.9500 O.2   313  ASN313     -0.2716
     50  ND2       49.3790   -1.2790  117.2860 N.am  313  ASN313     -0.0877
     51  N         46.8420   -2.7700  113.7010 N.am  314  GLN314     -0.1963
     52  CA        47.0260   -2.2170  112.3650 C.3   314  GLN314      0.1733
     53  C         45.9200   -1.2190  112.0930 C.2   314  GLN314      0.2616
     54  O         44.7300   -1.5670  112.1480 O.2   314  GLN314     -0.2715
     55  CB        47.0120   -3.3230  111.3060 C.3   314  GLN314      0.0408
     56  CG        47.3990   -2.8410  109.8850 C.3   314  GLN314      0.0908
     57  CD        47.4770   -3.9890  108.8710 C.2   314  GLN314      0.2608
     58  OE1       47.7870   -5.1570  109.2230 O.2   314  GLN314     -0.2717
     59  NE2       47.1930   -3.6750  107.6060 N.am  314  GLN314     -0.0878
     60  N         46.3200    0.0150  111.8060 N.am  315  VAL315     -0.1977
     61  CA        45.3680    1.0600  111.4430 C.3   315  VAL315      0.1596
     62  C         44.9780    0.8110  109.9850 C.2   315  VAL315      0.2287
     63  O         45.8440    0.6960  109.1140 O.2   315  VAL315     -0.2864
     64  CB        45.9440    2.4750  111.6680 C.3   315  VAL315      0.0276
     65  CG1       45.0280    3.5400  111.0260 C.3   315  VAL315      0.0022
     66  CG2       46.1530    2.7150  113.1670 C.3   315  VAL315      0.0022
     67  N         54.4940  -10.0410  108.4030 N.3   373  ARG373     -0.1231
     68  CA        54.3610   -8.7840  109.1150 C.3   373  ARG373      0.1694
     69  C         54.4420   -7.6870  108.0610 C.2   373  ARG373      0.2592
     70  O         55.5270   -7.1780  107.7560 O.2   373  ARG373     -0.2718
     71  CB        55.5060   -8.6160  110.1260 C.3   373  ARG373      0.0321
     72  CG        56.0260   -9.9330  110.7180 C.3   373  ARG373      0.0489
     73  CD        55.4970  -10.2210  112.1110 C.3   373  ARG373      0.2205
     74  NE        54.1040   -9.8150  112.2330 N.pl3 373  ARG373     -0.0865
     75  CZ        53.6800   -8.7870  112.9650 C.cat 373  ARG373      0.5346
     76  NH1       54.5350   -8.0650  113.6820 N.pl3 373  ARG373      0.1354
     77  NH2       52.3890   -8.4920  112.9890 N.pl3 373  ARG373      0.1354
     78  N         53.3000   -7.3470  107.4760 N.am  374  LEU374     -0.1966
     79  CA        53.2920   -6.3670  106.3960 C.3   374  LEU374      0.1728
     80  C         53.1420   -4.9530  106.9240 C.2   374  LEU374      0.2617
     81  O         52.4480   -4.7340  107.9250 O.2   374  LEU374     -0.2715
     82  CB        52.1370   -6.6380  105.4250 C.3   374  LEU374      0.0311
     83  CG        52.0560   -8.0290  104.7910 C.3   374  LEU374      0.0022
     84  CD1       50.7920   -8.1160  103.9590 C.3   374  LEU374      0.0001
     85  CD2       53.3100   -8.3110  103.9540 C.3   374  LEU374      0.0001
     86  N         53.7510   -3.9910  106.2270 N.am  375  GLY375     -0.1940
     87  CA        53.5360   -2.5810  106.5290 C.3   375  GLY375      0.2014
     88  C         52.1170   -2.1430  106.2030 C.2   375  GLY375      0.2639
     89  O         51.4120   -2.8000  105.4440 O.2   375  GLY375     -0.2714
     90  N         51.6940   -1.0150  106.7530 N.am  376  SER376     -0.1949
     91  CA        50.3240   -0.5630  106.4880 C.3   376  SER376      0.1924
     92  C         50.2040    0.9300  106.1950 C.2   376  SER376      0.2314
     93  O         51.0710    1.7110  106.5890 O.2   376  SER376     -0.2863
     94  CB        49.4580   -0.9080  107.6930 C.3   376  SER376      0.2116
     95  OG        49.9030   -0.1900  108.8330 O.3   376  SER376     -0.2180
@<TRIPOS>BOND
     1    85    83    1
     2    84    83    1
     3    83    82    1
     4    82    79    1
     5    89    88    2
     6    92    91    1
     7    92    93    2
     8    88    87    1
     9    88    90   am
    10    86    87    1
    11    86    80   am
    12    79    80    1
    13    79    78    1
    14    91    90    1
    15    91    94    1
    16    80    81    2
    17    78    69   am
    18    59    57   am
    19    94    95    1
    20    70    69    2
    21    14    13    1
    22    69    68    1
    23    12    11    2
    24    67    68    1
    25    11    10    1
    26    57    58    2
    27    57    56    1
    28    63    62    2
    29    68    71    1
    30    13    10    1
    31    10     9    1
    32    56    55    1
    33    62    61    1
    34    71    72    1
    35     9     3   am
    36    72    73    1
    37    65    64    1
    38     1     2    1
    39    55    52    1
    40     3     2    1
    41     3     4    2
    42    61    64    1
    43    61    60    1
    44    64    66    1
    45     5     2    1
    46     5     6    1
    47    60    53   am
    48     8     6   am
    49    53    54    2
    50    53    52    1
    51    73    74    1
    52    74    75    2
    53    52    51    1
    54     6     7    2
    55    75    77    1
    56    75    76    1
    57    26    28   ar
    58    26    24   ar
    59    23    24   ar
    60    23    21   ar
    61    51    45   am
    62    28    27   ar
    63    24    22   ar
    64    21    20   ar
    65    27    25   ar
    66    22    20   ar
    67    22    25   ar
    68    20    19    1
    69    46    45    2
    70    19    16    1
    71    45    44    1
    72    18    17    2
    73    16    17    1
    74    16    15    1
    75    49    48    2
    76    44    43    1
    77    44    47    1
    78    42    41    1
    79    43    39   am
    80    48    47    1
    81    48    50   am
    82    41    38    1
    83    39    40    2
    84    39    38    1
    85    38    37    1
    86    37    31   am
    87    32    31    2
    88    31    30    1
    89    36    34    1
    90    34    33    1
    91    30    29    1
    92    30    33    1
    93    33    35    1
