@<TRIPOS>MOLECULE
tmp/1v0zA01.pdb
 119 114 0 0 0
SMALL
GASTEIGER

@<TRIPOS>ATOM
      1  N         10.9690   -9.7870   46.6510 N.3    14  ASN14      -0.1225
      2  CA         9.8830   -8.9610   46.1400 C.3    14  ASN14       0.1785
      3  C          9.7240   -7.6390   46.8790 C.2    14  ASN14       0.2597
      4  O          9.2190   -6.6640   46.3210 O.2    14  ASN14      -0.2718
      5  CB         8.5790   -9.7710   46.0970 C.3    14  ASN14       0.1169
      6  CG         8.6840  -10.9490   45.1560 C.2    14  ASN14       0.2627
      7  OD1        9.1390  -10.7920   44.0210 O.2    14  ASN14      -0.2716
      8  ND2        8.3250  -12.1440   45.6330 N.am   14  ASN14      -0.0877
      9  N         10.2150   -7.5980   48.1160 N.am   15  SER15      -0.1952
     10  CA        10.2800   -6.3500   48.8820 C.3    15  SER15       0.1924
     11  C         11.3480   -6.5070   49.9690 C.2    15  SER15       0.2314
     12  O         12.0060   -7.5600   50.0560 O.2    15  SER15      -0.2863
     13  CB         8.9040   -6.0190   49.4970 C.3    15  SER15       0.2116
     14  OG         8.4740   -7.0550   50.3730 O.3    15  SER15      -0.2180
     15  N         18.0700   -6.4710   41.9140 N.3   281  TRP281     -0.1241
     16  CA        17.7220   -5.2100   42.5770 C.3   281  TRP281      0.1605
     17  C         18.9000   -4.2500   42.6060 C.2   281  TRP281      0.2264
     18  O         20.0070   -4.6580   42.9800 O.2   281  TRP281     -0.2867
     19  CB        17.3010   -5.4810   44.0270 C.3   281  TRP281      0.0550
     20  CG        15.9620   -6.0820   44.2000 C.ar  281  TRP281      0.0003
     21  CD1       15.6460   -7.4200   44.1770 C.ar  281  TRP281      0.0946
     22  CD2       14.7450   -5.3850   44.4950 C.ar  281  TRP281      0.0152
     23  NE1       14.2970   -7.5870   44.4000 N.ar  281  TRP281     -0.2442
     24  CE2       13.7250   -6.3640   44.6280 C.ar  281  TRP281      0.0810
     25  CE3       14.4160   -4.0310   44.6520 C.ar  281  TRP281      0.0012
     26  CZ2       12.3910   -6.0370   44.9200 C.ar  281  TRP281      0.0191
     27  CZ3       13.0800   -3.6990   44.9540 C.ar  281  TRP281      0.0001
     28  CH2       12.0880   -4.7010   45.0740 C.ar  281  TRP281      0.0015
     29  N         19.9620    3.0430   44.8880 N.3   284  ARG284     -0.1245
     30  CA        20.6240    4.3170   44.5990 C.3   284  ARG284      0.1563
     31  C         20.0330    5.4110   45.4690 C.2   284  ARG284      0.2260
     32  O         18.9280    5.2460   46.0230 O.2   284  ARG284     -0.2867
     33  CB        20.4980    4.6620   43.1020 C.3   284  ARG284      0.0307
     34  CG        19.0640    4.9050   42.6140 C.3   284  ARG284      0.0489
     35  CD        19.0650    5.3910   41.1500 C.3   284  ARG284      0.2205
     36  NE        17.7140    5.7190   40.6990 N.pl3 284  ARG284     -0.0865
     37  CZ        17.3770    5.9830   39.4410 C.cat 284  ARG284      0.5346
     38  NH1       18.2960    5.9690   38.4720 N.pl3 284  ARG284      0.1354
     39  NH2       16.1090    6.2560   39.1540 N.pl3 284  ARG284      0.1354
     40  N         16.5010    4.5930   47.4370 N.3   295  GLU295     -0.1245
     41  CA        15.4400    3.7760   46.8450 C.3   295  GLU295      0.1567
     42  C         15.9940    2.4380   46.3720 C.2   295  GLU295      0.2260
     43  O         17.1550    2.3550   45.9360 O.2   295  GLU295     -0.2867
     44  CB        14.7750    4.5250   45.6730 C.3   295  GLU295      0.0388
     45  CG        15.7280    4.8170   44.5000 C.3   295  GLU295      0.1160
     46  CD        15.0980    5.6690   43.3970 C.2   295  GLU295      0.3649
     47  OE1       13.8440    5.7610   43.3310 O.co2 295  GLU295     -0.2457
     48  OE2       15.8750    6.2630   42.6210 O.co2 295  GLU295     -0.2457
     49  N         15.2540   -0.4630   43.5590 N.3   297  LEU297     -0.1245
     50  CA        14.5480   -0.6630   42.2880 C.3   297  LEU297      0.1561
     51  C         14.7600   -2.0770   41.7740 C.2   297  LEU297      0.2260
     52  O         15.9030   -2.5320   41.6400 O.2   297  LEU297     -0.2867
     53  CB        15.0640    0.3350   41.2370 C.3   297  LEU297      0.0270
     54  CG        14.9800    1.8220   41.5940 C.3   297  LEU297      0.0019
     55  CD1       15.7090    2.6440   40.5660 C.3   297  LEU297      0.0001
     56  CD2       13.5360    2.2760   41.7190 C.3   297  LEU297      0.0001
     57  N         13.0300   -0.4560   35.7620 N.3   310  PRO310     -0.2102
     58  CA        12.4130   -0.9490   36.9870 C.3   310  PRO310      0.1504
     59  C         10.9950   -1.4540   36.7840 C.2   310  PRO310      0.2576
     60  O         10.2360   -0.8780   35.9840 O.2   310  PRO310     -0.2718
     61  CB        12.4050    0.2840   37.9060 C.3   310  PRO310      0.0282
     62  CG        13.3290    1.2710   37.2700 C.3   310  PRO310      0.0208
     63  CD        13.1780    1.0060   35.7890 C.3   310  PRO310      0.0893
     64  N         10.6520   -2.5130   37.5160 N.am  311  ILE311     -0.1966
     65  CA         9.2920   -3.0470   37.5500 C.3   311  ILE311      0.1727
     66  C          8.6570   -2.9150   38.9290 C.2   311  ILE311      0.2617
     67  O          7.4740   -3.2420   39.1100 O.2   311  ILE311     -0.2715
     68  CB         9.2520   -4.5290   37.0980 C.3   311  ILE311      0.0290
     69  CG1       10.0200   -5.4330   38.0870 C.3   311  ILE311      0.0022
     70  CG2        9.7740   -4.6550   35.6420 C.3   311  ILE311      0.0023
     71  CD1        9.7390   -6.9230   37.9150 C.3   311  ILE311      0.0001
     72  N          9.4530   -2.4750   39.9010 N.am  312  SER312     -0.1936
     73  CA         8.9540   -2.1680   41.2460 C.3   312  SER312      0.2055
     74  C          9.9510   -1.2930   41.9870 C.2   312  SER312      0.2643
     75  O         11.1180   -1.1650   41.5900 O.2   312  SER312     -0.2714
     76  CB         8.6280   -3.4430   42.0390 C.3   312  SER312      0.2130
     77  OG         9.7910   -4.0320   42.5570 O.3   312  SER312     -0.2179
     78  N          9.4860   -0.6790   43.0650 N.am  313  ASN313     -0.1957
     79  CA        10.3140    0.2340   43.8250 C.3   313  ASN313      0.1819
     80  C          9.9900    0.1150   45.3130 C.2   313  ASN313      0.2621
     81  O          8.8760   -0.2800   45.6920 O.2   313  ASN313     -0.2715
     82  CB        10.1050    1.6790   43.3500 C.3   313  ASN313      0.1195
     83  CG         8.7260    2.2420   43.7400 C.2   313  ASN313      0.2630
     84  OD1        7.7190    2.0490   43.0310 O.2   313  ASN313     -0.2716
     85  ND2        8.6790    2.9510   44.8720 N.am  313  ASN313     -0.0877
     86  N         10.9640    0.4640   46.1450 N.am  314  GLN314     -0.1977
     87  CA        10.6990    0.6740   47.5590 C.3   314  GLN314      0.1601
     88  C         11.5330    1.8590   48.0350 C.2   314  GLN314      0.2287
     89  O         12.7700    1.8110   47.9590 O.2   314  GLN314     -0.2864
     90  CB        11.0400   -0.5860   48.3630 C.3   314  GLN314      0.0394
     91  CG        10.5970   -0.4520   49.8390 C.3   314  GLN314      0.0908
     92  CD        10.6820   -1.7630   50.5900 C.2   314  GLN314      0.2608
     93  OE1       10.5340   -2.8360   50.0110 O.2   314  GLN314     -0.2717
     94  NE2       10.9370   -1.6740   51.8810 N.am  314  GLN314     -0.0878
     95  N          5.0000   -9.1950   49.8340 N.3   373  ARG373     -0.1231
     96  CA         4.8350   -7.8090   49.4240 C.3   373  ARG373      0.1694
     97  C          4.5600   -6.9950   50.6800 C.2   373  ARG373      0.2591
     98  O          3.4070   -6.8980   51.1470 O.2   373  ARG373     -0.2718
     99  CB         3.6720   -7.6690   48.4350 C.3   373  ARG373      0.0321
    100  CG         4.1030   -7.6030   46.9650 C.3   373  ARG373      0.0489
    101  CD         4.6650   -8.9290   46.4840 C.3   373  ARG373      0.2205
    102  NE         4.9870   -8.8950   45.0600 N.pl3 373  ARG373     -0.0865
    103  CZ         5.3040   -9.9590   44.3200 C.cat 373  ARG373      0.5346
    104  NH1        5.3410  -11.1780   44.8610 N.pl3 373  ARG373      0.1354
    105  NH2        5.5820   -9.8020   43.0250 N.pl3 373  ARG373      0.1354
    106  N          5.6210   -6.4400   51.2530 N.am  374  LEU374     -0.1980
    107  CA         5.5040   -5.7280   52.5160 C.3   374  LEU374      0.1596
    108  C          5.3610   -4.2490   52.2570 C.2   374  LEU374      0.2287
    109  O          5.9750   -3.7100   51.3330 O.2   374  LEU374     -0.2864
    110  CB         6.7360   -5.9690   53.3890 C.3   374  LEU374      0.0297
    111  CG         7.0540   -7.4350   53.6760 C.3   374  LEU374      0.0022
    112  CD1        8.3360   -7.5100   54.4810 C.3   374  LEU374      0.0001
    113  CD2        5.9100   -8.1460   54.3890 C.3   374  LEU374      0.0001
    114  N          5.9330   -0.2520   53.2830 N.3   376  SER376     -0.1217
    115  CA         7.2000    0.3920   53.6440 C.3   376  SER376      0.1889
    116  C          7.0230    1.8250   54.1290 C.2   376  SER376      0.2288
    117  O          6.0440    2.4890   53.7900 O.2   376  SER376     -0.2866
    118  CB         8.1390    0.3790   52.4420 C.3   376  SER376      0.2089
    119  OG         7.6150    1.1720   51.3880 O.3   376  SER376     -0.2183
@<TRIPOS>BOND
     1    70    68    1
     2    57    63    1
     3    57    58    1
     4    63    62    1
     5    60    59    2
     6    59    58    1
     7    59    64   am
     8    58    61    1
     9    68    65    1
    10    68    69    1
    11    62    61    1
    12    64    65    1
    13    65    66    1
    14    71    69    1
    15    38    37    1
    16    66    67    2
    17    66    72   am
    18    39    37    1
    19    37    36    2
    20    72    73    1
    21    55    54    1
    22    36    35    1
    23    35    34    1
    24    53    54    1
    25    53    50    1
    26    73    74    1
    27    73    76    1
    28    75    74    2
    29    54    56    1
    30    52    51    2
    31    51    50    1
    32    15    16    1
    33    74    78   am
    34    76    77    1
    35    50    49    1
    36    16    17    1
    37    16    19    1
    38    17    18    2
    39    34    33    1
    40    48    46   ar
    41   105   103    1
    42    84    83    2
    43    78    79    1
    44    33    30    1
    45    47    46   ar
    46    82    83    1
    47    82    79    1
    48    46    45    1
    49    83    85   am
    50    79    80    1
    51     7     6    2
    52    19    20    1
    53    21    20   ar
    54    21    23   ar
    55    20    22   ar
    56   103   104    1
    57   103   102    2
    58    23    24   ar
    59    22    24   ar
    60    22    25   ar
    61    45    44    1
    62    30    29    1
    63    30    31    1
    64    24    26   ar
    65    25    27   ar
    66    26    28   ar
    67    27    28   ar
    68   102   101    1
    69     6     8   am
    70     6     5    1
    71    80    81    2
    72    80    86   am
    73    31    32    2
    74    44    41    1
    75    43    42    2
    76     5     2    1
    77     2     1    1
    78     2     3    1
    79    86    87    1
    80     4     3    2
    81    42    41    1
    82   101   100    1
    83    41    40    1
    84     3     9   am
    85   100    99    1
    86    87    88    1
    87    87    90    1
    88    89    88    2
    89     9    10    1
    90    90    91    1
    91    99    96    1
    92    10    13    1
    93    10    11    1
    94    96    95    1
    95    96    97    1
    96    13    14    1
    97    91    92    1
    98    11    12    2
    99    93    92    2
   100    92    94   am
   101    97    98    2
   102    97   106   am
   103   106   107    1
   104   109   108    2
   105   119   118    1
   106   108   107    1
   107   118   115    1
   108   107   110    1
   109   114   115    1
   110   110   111    1
   111   115   116    1
   112   111   113    1
   113   111   112    1
   114   117   116    2
