@<TRIPOS>MOLECULE
tmp/1v1aA00.pdb
 136 125 0 0 0
SMALL
GASTEIGER

@<TRIPOS>ATOM
      1  N         24.0000   49.4290   33.6980 N.3     9  GLU9       -0.1245
      2  CA        23.9450   48.6120   34.9000 C.3     9  GLU9        0.1567
      3  C         25.1860   47.7310   35.0930 C.2     9  GLU9        0.2260
      4  O         25.5100   46.9010   34.2360 O.2     9  GLU9       -0.2867
      5  CB        22.7030   47.7100   34.8950 C.3     9  GLU9        0.0388
      6  CG        22.8710   46.4760   35.7850 C.3     9  GLU9        0.1160
      7  CD        21.5680   45.9030   36.3290 C.2     9  GLU9        0.3649
      8  OE1       20.7150   45.4450   35.5370 O.co2   9  GLU9       -0.2457
      9  OE2       21.4090   45.9080   37.5690 O.co2   9  GLU9       -0.2457
     10  N         27.4110   44.6730   36.5530 N.3    11  LEU11      -0.1245
     11  CA        26.9910   43.3070   36.8390 C.3    11  LEU11       0.1561
     12  C         28.1330   42.4130   37.3010 C.2    11  LEU11       0.2260
     13  O         29.2980   42.6800   37.0290 O.2    11  LEU11      -0.2867
     14  CB        26.3600   42.6810   35.5900 C.3    11  LEU11       0.0270
     15  CG        24.9150   42.9960   35.2070 C.3    11  LEU11       0.0019
     16  CD1       24.5080   42.1090   34.0340 C.3    11  LEU11       0.0001
     17  CD2       24.0040   42.7070   36.3700 C.3    11  LEU11       0.0001
     18  N         29.0720   43.8690   32.8670 N.3    34  GLY34      -0.1210
     19  CA        28.2410   45.0110   32.5580 C.3    34  GLY34       0.1956
     20  C         28.7890   45.5380   31.2470 C.2    34  GLY34       0.2612
     21  O         29.9730   45.8700   31.1540 O.2    34  GLY34      -0.2717
     22  N         27.9360   45.6000   30.2320 N.am   35  ALA35      -0.1965
     23  CA        28.3300   46.0520   28.9070 C.3    35  ALA35       0.1728
     24  C         29.1170   47.3610   28.9090 C.2    35  ALA35       0.2616
     25  O         30.2330   47.4330   28.3760 O.2    35  ALA35      -0.2715
     26  CB        27.0850   46.1790   28.0340 C.3    35  ALA35       0.0334
     27  N         28.5350   48.3930   29.5160 N.am   36  GLU36      -0.1977
     28  CA        29.1560   49.7160   29.5770 C.3    36  GLU36       0.1602
     29  C         30.3790   49.7280   30.4890 C.2    36  GLU36       0.2287
     30  O         31.2920   50.5430   30.3100 O.2    36  GLU36      -0.2864
     31  CB        28.1300   50.7610   30.0380 C.3    36  GLU36       0.0415
     32  CG        26.8660   50.8210   29.1620 C.3    36  GLU36       0.1163
     33  CD        25.8790   49.6880   29.4750 C.2    36  GLU36       0.3649
     34  OE1       24.9040   49.5000   28.7070 O.co2  36  GLU36      -0.2457
     35  OE2       26.0740   48.9900   30.5010 O.co2  36  GLU36      -0.2457
     36  N         32.3660   47.0920   30.7910 N.3    38  ASN38      -0.1240
     37  CA        33.3800   46.4630   29.9580 C.3    38  ASN38       0.1653
     38  C         33.9820   47.5130   29.0350 C.2    38  ASN38       0.2266
     39  O         35.2100   47.6190   28.9240 O.2    38  ASN38      -0.2867
     40  CB        32.7850   45.3110   29.1320 C.3    38  ASN38       0.1155
     41  CG        32.2560   44.1950   29.9960 C.2    38  ASN38       0.2627
     42  OD1       32.6250   44.0820   31.1690 O.2    38  ASN38      -0.2716
     43  ND2       31.3930   43.3530   29.4250 N.am   38  ASN38      -0.0877
     44  N         24.7330   37.6410   37.2800 N.3    89  TYR89      -0.1241
     45  CA        24.2310   36.6740   36.3050 C.3    89  TYR89       0.1605
     46  C         25.1770   35.5030   36.1190 C.2    89  TYR89       0.2264
     47  O         26.3960   35.6730   36.1700 O.2    89  TYR89      -0.2867
     48  CB        23.9670   37.3420   34.9450 C.3    89  TYR89       0.0534
     49  CG        25.1850   37.6420   34.0700 C.ar   89  TYR89      -0.0201
     50  CD1       26.1010   38.6400   34.4080 C.ar   89  TYR89      -0.0009
     51  CD2       25.3720   36.9730   32.8620 C.ar   89  TYR89      -0.0009
     52  CE1       27.1620   38.9620   33.5580 C.ar   89  TYR89       0.0417
     53  CE2       26.4300   37.2920   32.0060 C.ar   89  TYR89       0.0417
     54  CZ        27.3170   38.2820   32.3600 C.ar   89  TYR89       0.1957
     55  OH        28.3630   38.5770   31.5030 O.3    89  TYR89      -0.2866
     56  N         19.8500   35.5240   34.5800 N.3   103  TYR103     -0.1241
     57  CA        19.9310   36.7670   35.3600 C.3   103  TYR103      0.1605
     58  C         19.3150   36.7310   36.7660 C.2   103  TYR103      0.2264
     59  O         18.3720   35.9810   37.0400 O.2   103  TYR103     -0.2867
     60  CB        19.2770   37.9320   34.6050 C.3   103  TYR103      0.0534
     61  CG        19.9440   38.3290   33.3140 C.ar  103  TYR103     -0.0201
     62  CD1       19.4380   37.8990   32.0810 C.ar  103  TYR103     -0.0009
     63  CD2       21.0600   39.1600   33.3190 C.ar  103  TYR103     -0.0009
     64  CE1       20.0280   38.2960   30.8840 C.ar  103  TYR103      0.0417
     65  CE2       21.6600   39.5680   32.1310 C.ar  103  TYR103      0.0417
     66  CZ        21.1390   39.1350   30.9160 C.ar  103  TYR103      0.1957
     67  OH        21.7200   39.5590   29.7390 O.3   103  TYR103     -0.2866
     68  N         19.0110   40.0930   38.5240 N.3   105  ARG105     -0.1245
     69  CA        19.2340   41.5320   38.5290 C.3   105  ARG105      0.1563
     70  C         17.9490   42.3520   38.6450 C.2   105  ARG105      0.2260
     71  O         18.0040   43.5610   38.8900 O.2   105  ARG105     -0.2867
     72  CB        19.9300   41.9160   37.2340 C.3   105  ARG105      0.0307
     73  CG        19.0740   41.5900   36.0220 C.3   105  ARG105      0.0489
     74  CD        19.8260   41.7520   34.7240 C.3   105  ARG105      0.2205
     75  NE        20.4890   43.0470   34.6150 N.pl3 105  ARG105     -0.0865
     76  CZ        21.1500   43.4350   33.5330 C.cat 105  ARG105      0.5346
     77  NH1       21.2160   42.6230   32.4870 N.pl3 105  ARG105      0.1354
     78  NH2       21.7570   44.6150   33.5010 N.pl3 105  ARG105      0.1354
     79  N         20.9630   47.6160   26.2980 N.3   134  ILE134     -0.1245
     80  CA        20.6430   46.8250   27.4780 C.3   134  ILE134      0.1561
     81  C         19.9940   47.7340   28.5180 C.2   134  ILE134      0.2260
     82  O         18.9670   47.3900   29.1150 O.2   134  ILE134     -0.2867
     83  CB        21.9200   46.1870   28.0790 C.3   134  ILE134      0.0252
     84  CG1       22.5900   45.2950   27.0300 C.3   134  ILE134      0.0019
     85  CG2       21.5710   45.3850   29.3210 C.3   134  ILE134      0.0019
     86  CD1       23.9970   44.8440   27.3900 C.3   134  ILE134      0.0001
     87  N         23.1330   45.6760   21.5650 N.3   165  ASN165     -0.1240
     88  CA        23.2120   44.6710   22.6130 C.3   165  ASN165      0.1653
     89  C         21.8000   44.2700   23.0140 C.2   165  ASN165      0.2266
     90  O         21.3680   44.5140   24.1360 O.2   165  ASN165     -0.2867
     91  CB        23.9680   45.2030   23.8360 C.3   165  ASN165      0.1155
     92  CG        25.4420   44.8230   23.8230 C.2   165  ASN165      0.2627
     93  OD1       25.7940   43.6700   23.5780 O.2   165  ASN165     -0.2716
     94  ND2       26.3050   45.7880   24.1030 N.am  165  ASN165     -0.0877
     95  N         18.9450   41.8630   24.1960 N.3   167  ARG167     -0.1245
     96  CA        18.8430   40.6590   25.0090 C.3   167  ARG167      0.1563
     97  C         17.3720   40.2690   25.1230 C.2   167  ARG167      0.2260
     98  O         16.5800   40.9640   25.7590 O.2   167  ARG167     -0.2867
     99  CB        19.4410   40.9200   26.3900 C.3   167  ARG167      0.0307
    100  CG        20.9030   41.3720   26.3580 C.3   167  ARG167      0.0489
    101  CD        21.8450   40.2100   26.0500 C.3   167  ARG167      0.2205
    102  NE        23.2510   40.5790   26.2000 N.pl3 167  ARG167     -0.0865
    103  CZ        23.9380   41.2890   25.3140 C.cat 167  ARG167      0.5346
    104  NH1       23.3540   41.7070   24.1970 N.pl3 167  ARG167      0.1354
    105  NH2       25.2080   41.5960   25.5540 N.pl3 167  ARG167      0.1354
    106  N         31.8670   36.2320   25.6000 N.3   247  VAL247     -0.1231
    107  CA        31.0170   37.1940   26.2800 C.3   247  VAL247      0.1692
    108  C         31.7660   38.5200   26.2660 C.2   247  VAL247      0.2592
    109  O         33.0010   38.5530   26.3870 O.2   247  VAL247     -0.2718
    110  CB        30.7180   36.7620   27.7370 C.3   247  VAL247      0.0266
    111  CG1       30.2170   37.9420   28.5610 C.3   247  VAL247      0.0020
    112  CG2       29.6590   35.6920   27.7290 C.3   247  VAL247      0.0020
    113  N         31.0190   39.5990   26.0670 N.am  248  GLY248     -0.1957
    114  CA        31.6150   40.9200   26.0410 C.3   248  GLY248      0.1869
    115  C         32.6690   41.1830   24.9890 C.2   248  GLY248      0.2309
    116  O         33.4170   42.1530   25.1010 O.2   248  GLY248     -0.2863
    117  N         32.0250   42.0610   22.1240 N.3   250  GLY250     -0.1210
    118  CA        31.4860   43.2160   21.4200 C.3   250  GLY250      0.1956
    119  C         31.7820   44.5370   22.1210 C.2   250  GLY250      0.2611
    120  O         32.0250   45.5590   21.4760 O.2   250  GLY250     -0.2717
    121  N         31.7520   44.5260   23.4480 N.am  251  ASP251     -0.1973
    122  CA        32.0370   45.7300   24.2100 C.3   251  ASP251      0.1709
    123  C         33.4850   46.1120   24.0030 C.2   251  ASP251      0.2293
    124  O         33.8230   47.2950   23.9290 O.2   251  ASP251     -0.2864
    125  CB        31.7800   45.4970   25.6880 C.3   251  ASP251      0.1436
    126  CG        30.4060   44.9270   25.9510 C.2   251  ASP251      0.3671
    127  OD1       29.5000   45.1020   25.1010 O.co2 251  ASP251     -0.2456
    128  OD2       30.2390   44.3150   27.0220 O.co2 251  ASP251     -0.2456
    129  N         34.6020   38.9520   31.5090 N.3   287  ASP287     -0.1239
    130  CA        33.8760   39.8480   30.6270 C.3   287  ASP287      0.1674
    131  C         34.7570   40.8460   29.8820 C.2   287  ASP287      0.2266
    132  O         34.4380   41.2300   28.7570 O.2   287  ASP287     -0.2867
    133  CB        32.7910   40.5790   31.4250 C.3   287  ASP287      0.1410
    134  CG        31.6110   39.6800   31.7570 C.2   287  ASP287      0.3668
    135  OD1       31.8210   38.4530   31.9010 O.co2 287  ASP287     -0.2456
    136  OD2       30.4810   40.1960   31.8810 O.co2 287  ASP287     -0.2456
@<TRIPOS>BOND
     1   118   119    1
     2   118   117    1
     3   120   119    2
     4    87    88    1
     5   119   121   am
     6    88    89    1
     7    88    91    1
     8    89    90    2
     9   121   122    1
    10    93    92    2
    11    92    91    1
    12    92    94   am
    13   124   123    2
    14   123   122    1
    15    95    96    1
    16   104   103    1
    17   122   125    1
    18   115   116    2
    19   115   114    1
    20    96    97    1
    21    96    99    1
    22   127   126   ar
    23    97    98    2
    24   103   105    1
    25   103   102    2
    26   106   107    1
    27   125   126    1
    28   126   128   ar
    29   114   113    1
    30   101   102    1
    31   101   100    1
    32   113   108   am
    33   108   107    1
    34   108   109    2
    35   107   110    1
    36    79    80    1
    37   100    99    1
    38    84    86    1
    39    84    83    1
    40    80    83    1
    41    80    81    1
    42   112   110    1
    43   110   111    1
    44    26    23    1
    45    83    85    1
    46    25    24    2
    47    81    82    2
    48    34    33   ar
    49   132   131    2
    50    23    24    1
    51    23    22    1
    52    24    27   am
    53    39    38    2
    54    38    37    1
    55    40    37    1
    56    40    41    1
    57    32    33    1
    58    32    31    1
    59    43    41   am
    60    33    35   ar
    61    27    28    1
    62    28    31    1
    63    28    29    1
    64    67    66    1
    65   131   130    1
    66    37    36    1
    67    41    42    2
    68    22    20   am
    69    30    29    2
    70   130   133    1
    71   130   129    1
    72    64    66   ar
    73    64    62   ar
    74    66    65   ar
    75    21    20    2
    76    20    19    1
    77   133   134    1
    78    55    54    1
    79   134   136   ar
    80   134   135   ar
    81    53    54   ar
    82    53    51   ar
    83    62    61   ar
    84    65    63   ar
    85    54    52   ar
    86    77    76    1
    87    19    18    1
    88    51    49   ar
    89    61    63   ar
    90    61    60    1
    91    78    76    1
    92    76    75    2
    93    52    50   ar
    94     1     2    1
    95    16    15    1
    96    49    50   ar
    97    49    48    1
    98     4     3    2
    99    56    57    1
   100    60    57    1
   101    75    74    1
   102    74    73    1
   103     5     2    1
   104     5     6    1
   105     2     3    1
   106    48    45    1
   107    15    14    1
   108    15    17    1
   109    57    58    1
   110     8     7   ar
   111    14    11    1
   112     6     7    1
   113    73    72    1
   114    46    47    2
   115    46    45    1
   116    45    44    1
   117     7     9   ar
   118    10    11    1
   119    58    59    2
   120    11    12    1
   121    13    12    2
   122    72    69    1
   123    68    69    1
   124    69    70    1
   125    70    71    2
