@<TRIPOS>MOLECULE
tmp/1v1aA01.pdb
 146 133 0 0 0
SMALL
GASTEIGER

@<TRIPOS>ATOM
      1  N         23.1330   45.6760   21.5650 N.3   165  ASN165     -0.1240
      2  CA        23.2120   44.6710   22.6130 C.3   165  ASN165      0.1653
      3  C         21.8000   44.2700   23.0140 C.2   165  ASN165      0.2266
      4  O         21.3680   44.5140   24.1360 O.2   165  ASN165     -0.2867
      5  CB        23.9680   45.2030   23.8360 C.3   165  ASN165      0.1155
      6  CG        25.4420   44.8230   23.8230 C.2   165  ASN165      0.2627
      7  OD1       25.7940   43.6700   23.5780 O.2   165  ASN165     -0.2716
      8  ND2       26.3050   45.7880   24.1030 N.am  165  ASN165     -0.0877
      9  N         18.9450   41.8630   24.1960 N.3   167  ARG167     -0.1245
     10  CA        18.8430   40.6590   25.0090 C.3   167  ARG167      0.1563
     11  C         17.3720   40.2690   25.1230 C.2   167  ARG167      0.2260
     12  O         16.5800   40.9640   25.7590 O.2   167  ARG167     -0.2867
     13  CB        19.4410   40.9200   26.3900 C.3   167  ARG167      0.0307
     14  CG        20.9030   41.3720   26.3580 C.3   167  ARG167      0.0489
     15  CD        21.8450   40.2100   26.0500 C.3   167  ARG167      0.2205
     16  NE        23.2510   40.5790   26.2000 N.pl3 167  ARG167     -0.0865
     17  CZ        23.9380   41.2890   25.3140 C.cat 167  ARG167      0.5346
     18  NH1       23.3540   41.7070   24.1970 N.pl3 167  ARG167      0.1354
     19  NH2       25.2080   41.5960   25.5540 N.pl3 167  ARG167      0.1354
     20  N         25.3630   43.5930   15.7190 N.3   193  SER193     -0.1217
     21  CA        25.8920   42.2730   15.3840 C.3   193  SER193      0.1889
     22  C         24.8860   41.5920   14.4690 C.2   193  SER193      0.2288
     23  O         23.7240   41.4260   14.8290 O.2   193  SER193     -0.2866
     24  CB        26.1000   41.4170   16.6400 C.3   193  SER193      0.2089
     25  OG        24.8870   40.8460   17.0920 O.3   193  SER193     -0.2183
     26  N         23.5100   38.9660   13.9030 N.3   195  GLU195     -0.1231
     27  CA        22.4280   38.2200   14.5570 C.3   195  GLU195      0.1699
     28  C         21.2690   39.1150   14.9520 C.2   195  GLU195      0.2592
     29  O         20.1380   38.9410   14.4910 O.2   195  GLU195     -0.2718
     30  CB        22.9380   37.5320   15.8180 C.3   195  GLU195      0.0402
     31  CG        24.0840   36.5800   15.6060 C.3   195  GLU195      0.1161
     32  CD        24.6120   36.0270   16.9160 C.2   195  GLU195      0.3649
     33  OE1       23.8430   35.3470   17.6320 O.co2 195  GLU195     -0.2457
     34  OE2       25.7960   36.2760   17.2320 O.co2 195  GLU195     -0.2457
     35  N         21.5820   40.0610   15.8330 N.am  196  GLU196     -0.1979
     36  CA        20.6250   41.0290   16.3580 C.3   196  GLU196      0.1602
     37  C         19.8500   41.7330   15.2460 C.2   196  GLU196      0.2287
     38  O         18.6710   42.0600   15.4000 O.2   196  GLU196     -0.2864
     39  CB        21.3670   42.0690   17.2140 C.3   196  GLU196      0.0415
     40  CG        22.0680   41.4910   18.4440 C.3   196  GLU196      0.1163
     41  CD        22.8970   42.5170   19.2090 C.2   196  GLU196      0.3649
     42  OE1       23.4680   42.1520   20.2620 O.co2 196  GLU196     -0.2457
     43  OE2       22.9810   43.6800   18.7580 O.co2 196  GLU196     -0.2457
     44  N         29.1860   44.3400   13.3780 N.3   219  LYS219     -0.1245
     45  CA        30.0570   43.2900   13.8660 C.3   219  LYS219      0.1561
     46  C         29.5460   42.0090   13.1980 C.2   219  LYS219      0.2260
     47  O         28.3820   41.6290   13.3540 O.2   219  LYS219     -0.2867
     48  CB        29.9460   43.1730   15.3940 C.3   219  LYS219      0.0271
     49  CG        30.2820   44.4540   16.1580 C.3   219  LYS219      0.0035
     50  CD        30.0380   44.3180   17.6720 C.3   219  LYS219      0.0206
     51  CE        28.5640   44.1260   18.0170 C.3   219  LYS219      0.1093
     52  NZ        28.3310   44.0530   19.4930 N.3   219  LYS219     -0.1314
     53  N         30.8990   38.9780   13.6890 N.3   221  GLY221     -0.1210
     54  CA        31.6270   37.9310   14.3790 C.3   221  GLY221      0.1956
     55  C         33.0630   37.8960   13.8910 C.2   221  GLY221      0.2611
     56  O         33.5920   38.9090   13.4230 O.2   221  GLY221     -0.2717
     57  N         33.7000   36.7350   13.9890 N.am  222  ALA222     -0.1979
     58  CA        35.0800   36.6030   13.5420 C.3   222  ALA222      0.1597
     59  C         35.1750   36.7720   12.0250 C.2   222  ALA222      0.2287
     60  O         36.2720   36.7830   11.4650 O.2   222  ALA222     -0.2864
     61  CB        35.6330   35.2490   13.9600 C.3   222  ALA222      0.0319
     62  N         34.7690   39.3180   10.4470 N.3   224  GLY224     -0.1225
     63  CA        35.0420   40.7230   10.1810 C.3   224  GLY224      0.1811
     64  C         34.0380   41.7390   10.7060 C.2   224  GLY224      0.2280
     65  O         33.5450   41.6260   11.8330 O.2   224  GLY224     -0.2866
     66  N         39.0400   40.3750   10.4170 N.3   238  ALA238     -0.1231
     67  CA        39.0640   39.9500   11.8150 C.3   238  ALA238      0.1694
     68  C         40.3360   39.1820   12.2000 C.2   238  ALA238      0.2592
     69  O         40.9560   38.5200   11.3640 O.2   238  ALA238     -0.2718
     70  CB        37.8280   39.0950   12.1120 C.3   238  ALA238      0.0304
     71  N         40.7190   39.2820   13.4720 N.am  239  PHE239     -0.1976
     72  CA        41.9000   38.5890   13.9820 C.3   239  PHE239      0.1639
     73  C         41.5660   37.1250   14.2870 C.2   239  PHE239      0.2290
     74  O         40.4330   36.8020   14.6620 O.2   239  PHE239     -0.2864
     75  CB        42.4140   39.2870   15.2390 C.3   239  PHE239      0.0560
     76  CG        43.2570   40.4990   14.9610 C.ar  239  PHE239     -0.0200
     77  CD1       44.6410   40.3940   14.8910 C.ar  239  PHE239     -0.0042
     78  CD2       42.6720   41.7520   14.8040 C.ar  239  PHE239     -0.0042
     79  CE1       45.4360   41.5230   14.6740 C.ar  239  PHE239     -0.0003
     80  CE2       43.4550   42.8870   14.5870 C.ar  239  PHE239     -0.0003
     81  CZ        44.8390   42.7710   14.5240 C.ar  239  PHE239     -0.0000
     82  N         42.0360   33.6500   16.4240 N.3   241  VAL241     -0.1245
     83  CA        42.3720   33.0420   17.7020 C.3   241  VAL241      0.1561
     84  C         41.2050   32.1140   18.0220 C.2   241  VAL241      0.2260
     85  O         40.1630   32.1940   17.3680 O.2   241  VAL241     -0.2867
     86  CB        42.5260   34.1090   18.8150 C.3   241  VAL241      0.0252
     87  CG1       41.1920   34.8070   19.0700 C.3   241  VAL241      0.0019
     88  CG2       43.0610   33.4590   20.0820 C.3   241  VAL241      0.0019
     89  N         38.0380   30.8110   20.0390 N.3   243  ALA243     -0.1245
     90  CA        36.9630   31.3340   20.8720 C.3   243  ALA243      0.1562
     91  C         36.9350   30.7960   22.2970 C.2   243  ALA243      0.2260
     92  O         36.2940   29.7830   22.5730 O.2   243  ALA243     -0.2867
     93  CB        35.6210   31.0730   20.1950 C.3   243  ALA243      0.0290
     94  N         33.6920   34.3810   24.5890 N.3   246  PRO246     -0.2116
     95  CA        33.2630   35.4980   23.7460 C.3   246  PRO246      0.1372
     96  C         32.3510   36.5250   24.4000 C.2   246  PRO246      0.2244
     97  O         32.0770   37.5720   23.8160 O.2   246  PRO246     -0.2868
     98  CB        32.5990   34.7920   22.5740 C.3   246  PRO246      0.0268
     99  CG        31.9370   33.6640   23.2510 C.3   246  PRO246      0.0207
    100  CD        33.0350   33.1400   24.1450 C.3   246  PRO246      0.0892
    101  N         31.0190   39.5990   26.0670 N.3   248  GLY248     -0.1210
    102  CA        31.6150   40.9200   26.0410 C.3   248  GLY248      0.1956
    103  C         32.6690   41.1830   24.9890 C.2   248  GLY248      0.2612
    104  O         33.4170   42.1530   25.1010 O.2   248  GLY248     -0.2717
    105  N         32.7510   40.3380   23.9670 N.am  249  ALA249     -0.1965
    106  CA        33.7460   40.5630   22.9220 C.3   249  ALA249      0.1728
    107  C         33.3320   41.7890   22.1230 C.2   249  ALA249      0.2616
    108  O         34.1690   42.4660   21.5200 O.2   249  ALA249     -0.2715
    109  CB        33.8480   39.3500   22.0120 C.3   249  ALA249      0.0334
    110  N         32.0250   42.0610   22.1240 N.am  250  GLY250     -0.1955
    111  CA        31.4860   43.2160   21.4200 C.3   250  GLY250      0.1869
    112  C         31.7820   44.5370   22.1210 C.2   250  GLY250      0.2309
    113  O         32.0250   45.5590   21.4760 O.2   250  GLY250     -0.2863
    114  N         35.1070   45.4150   21.3780 N.3   253  PHE253     -0.1241
    115  CA        35.1000   45.8990   20.0130 C.3   253  PHE253      0.1605
    116  C         34.7610   47.3910   20.0470 C.2   253  PHE253      0.2264
    117  O         35.6000   48.2250   19.7060 O.2   253  PHE253     -0.2867
    118  CB        34.0600   45.1360   19.1870 C.3   253  PHE253      0.0534
    119  CG        33.9760   45.5930   17.7500 C.ar  253  PHE253     -0.0203
    120  CD1       34.9530   45.2210   16.8250 C.ar  253  PHE253     -0.0042
    121  CD2       32.9500   46.4440   17.3370 C.ar  253  PHE253     -0.0042
    122  CE1       34.9110   45.6950   15.5140 C.ar  253  PHE253     -0.0003
    123  CE2       32.9010   46.9230   16.0300 C.ar  253  PHE253     -0.0003
    124  CZ        33.8830   46.5500   15.1160 C.ar  253  PHE253     -0.0000
    125  N         38.6930   45.3940   15.9930 N.3   275  ASN275     -0.1240
    126  CA        38.8100   43.9450   15.7860 C.3   275  ASN275      0.1653
    127  C         39.8530   43.3290   16.7200 C.2   275  ASN275      0.2266
    128  O         39.6810   42.2160   17.2060 O.2   275  ASN275     -0.2867
    129  CB        39.2040   43.6300   14.3390 C.3   275  ASN275      0.1155
    130  CG        38.0570   43.8150   13.3590 C.2   275  ASN275      0.2627
    131  OD1       36.9480   43.3270   13.5860 O.2   275  ASN275     -0.2716
    132  ND2       38.3270   44.4990   12.2480 N.am  275  ASN275     -0.0877
    133  N         38.3890   43.2380   20.4290 N.3   278  GLY278     -0.1210
    134  CA        37.3890   42.1810   20.5030 C.3   278  GLY278      0.1956
    135  C         37.9360   40.7640   20.5790 C.2   278  GLY278      0.2611
    136  O         37.4840   39.9580   21.3990 O.2   278  GLY278     -0.2717
    137  N         38.9100   40.4640   19.7250 N.am  279  ALA279     -0.1979
    138  CA        39.5290   39.1470   19.6930 C.3   279  ALA279      0.1597
    139  C         40.2850   38.8730   20.9960 C.2   279  ALA279      0.2287
    140  O         40.2100   37.7750   21.5510 O.2   279  ALA279     -0.2864
    141  CB        40.4850   39.0480   18.5000 C.3   279  ALA279      0.0319
    142  N         37.6480   37.9530   23.5050 N.3   282  ALA282     -0.1245
    143  CA        37.0640   36.6400   23.2230 C.3   282  ALA282      0.1562
    144  C         38.0540   35.4930   23.4780 C.2   282  ALA282      0.2260
    145  O         37.6450   34.3520   23.6850 O.2   282  ALA282     -0.2867
    146  CB        36.5530   36.5850   21.8020 C.3   282  ALA282      0.0290
@<TRIPOS>BOND
     1    63    62    1
     2    63    64    1
     3    66    67    1
     4    64    65    2
     5    69    68    2
     6    60    59    2
     7    67    70    1
     8    67    68    1
     9    59    58    1
    10    68    71   am
    11   132   130   am
    12    46    47    2
    13    46    45    1
    14   130   131    2
    15   130   129    1
    16    44    45    1
    17    56    55    2
    18    71    72    1
    19    58    61    1
    20    58    57    1
    21    53    54    1
    22    45    48    1
    23    55    57   am
    24    55    54    1
    25    26    27    1
    26    72    73    1
    27    72    75    1
    28    73    74    2
    29   129   126    1
    30    22    23    2
    31    22    21    1
    32    29    28    2
    33    81    80   ar
    34    81    79   ar
    35    27    28    1
    36    27    30    1
    37    80    78   ar
    38    79    77   ar
    39    78    76   ar
    40    77    76   ar
    41    28    35   am
    42    76    75    1
    43   124   122   ar
    44   124   123   ar
    45    37    38    2
    46    37    36    1
    47    21    20    1
    48    21    24    1
    49    48    49    1
    50   122   120   ar
    51    31    30    1
    52    31    32    1
    53   126   125    1
    54   126   127    1
    55    35    36    1
    56   123   121   ar
    57    49    50    1
    58    36    39    1
    59    82    83    1
    60    24    25    1
    61   127   128    2
    62   120   119   ar
    63    32    34   ar
    64    32    33   ar
    65    39    40    1
    66   121   119   ar
    67    85    84    2
    68    50    51    1
    69    83    84    1
    70    83    86    1
    71   119   118    1
    72    51    52    1
    73    40    41    1
    74   141   138    1
    75    43    41   ar
    76    86    87    1
    77    86    88    1
    78   118   115    1
    79    41    42   ar
    80   138   137    1
    81   138   139    1
    82   117   116    2
    83   137   135   am
    84   115   116    1
    85   115   114    1
    86    89    90    1
    87    93    90    1
    88   133   134    1
    89   134   135    1
    90   135   136    2
    91    90    91    1
    92   139   140    2
    93   111   112    1
    94   111   110    1
    95   113   112    2
    96   108   107    2
    97     1     2    1
    98   146   143    1
    99   109   106    1
   100   107   110   am
   101   107   106    1
   102    91    92    2
   103    98    99    1
   104    98    95    1
   105     2     3    1
   106     2     5    1
   107   106   105    1
   108     3     4    2
   109   143   144    1
   110   143   142    1
   111    99   100    1
   112   144   145    2
   113     7     6    2
   114    95    96    1
   115    95    94    1
   116    97    96    2
   117     6     5    1
   118     6     8   am
   119   105   103   am
   120   100    94    1
   121     9    10    1
   122    18    17    1
   123   103   104    2
   124   103   102    1
   125    10    11    1
   126    10    13    1
   127    11    12    2
   128    17    19    1
   129    17    16    2
   130   102   101    1
   131    15    16    1
   132    15    14    1
   133    14    13    1
