@<TRIPOS>MOLECULE
tmp/1v1bA00.pdb
 170 156 0 0 0
SMALL
GASTEIGER

@<TRIPOS>ATOM
      1  N         29.0590   46.4050   28.7190 N.3    35  ALA35      -0.1245
      2  CA        29.4950   46.9470   27.4380 C.3    35  ALA35       0.1562
      3  C         30.3740   48.1900   27.5200 C.2    35  ALA35       0.2260
      4  O         31.5520   48.1440   27.1590 O.2    35  ALA35      -0.2867
      5  CB        28.2930   47.2260   26.5690 C.3    35  ALA35       0.0290
      6  N         22.1760   49.0070   24.6630 N.3   134  ILE134     -0.1245
      7  CA        21.7240   48.2370   25.8100 C.3   134  ILE134      0.1561
      8  C         21.1800   49.1830   26.8740 C.2   134  ILE134      0.2260
      9  O         20.1770   48.8920   27.5240 O.2   134  ILE134     -0.2867
     10  CB        22.8860   47.3890   26.3860 C.3   134  ILE134      0.0252
     11  CG1       23.4580   46.4870   25.2790 C.3   134  ILE134      0.0019
     12  CG2       22.3940   46.5490   27.5600 C.3   134  ILE134      0.0019
     13  CD1       24.7750   45.8280   25.6270 C.3   134  ILE134      0.0001
     14  N         24.3290   47.3140   19.4540 N.3   165  ASN165     -0.1240
     15  CA        24.3060   46.2470   20.4520 C.3   165  ASN165      0.1653
     16  C         22.8690   45.8730   20.8160 C.2   165  ASN165      0.2266
     17  O         22.4490   46.0350   21.9610 O.2   165  ASN165     -0.2867
     18  CB        25.0690   46.6840   21.7080 C.3   165  ASN165      0.1155
     19  CG        25.9380   45.5730   22.2840 C.2   165  ASN165      0.2627
     20  OD1       25.4390   44.5290   22.6990 O.2   165  ASN165     -0.2716
     21  ND2       27.2450   45.8010   22.3140 N.am  165  ASN165     -0.0877
     22  N         19.7740   43.8220   21.9740 N.3   167  ARG167     -0.1245
     23  CA        19.5350   42.6960   22.8720 C.3   167  ARG167      0.1563
     24  C         18.0740   42.2810   22.7670 C.2   167  ARG167      0.2260
     25  O         17.1820   43.0540   23.1170 O.2   167  ARG167     -0.2867
     26  CB        19.8180   43.0900   24.3230 C.3   167  ARG167      0.0307
     27  CG        20.9710   44.0500   24.5170 C.3   167  ARG167      0.0489
     28  CD        22.2640   43.4570   24.0260 C.3   167  ARG167      0.2205
     29  NE        22.5520   42.1720   24.6500 N.pl3 167  ARG167     -0.0865
     30  CZ        23.6460   41.4650   24.3940 C.cat 167  ARG167      0.5346
     31  NH1       24.5360   41.9340   23.5310 N.pl3 167  ARG167      0.1354
     32  NH2       23.8520   40.2960   24.9930 N.pl3 167  ARG167      0.1354
     33  N         26.5250   45.3550   13.7560 N.3   193  SER193     -0.1217
     34  CA        26.9540   44.0350   13.3220 C.3   193  SER193      0.1889
     35  C         26.0020   43.5220   12.2470 C.2   193  SER193      0.2288
     36  O         24.8660   43.9860   12.1360 O.2   193  SER193     -0.2866
     37  CB        27.0050   43.0610   14.5000 C.3   193  SER193      0.2089
     38  OG        27.7940   41.9290   14.1640 O.3   193  SER193     -0.2183
     39  N         22.6030   42.0000   13.5460 N.3   196  GLU196     -0.1245
     40  CA        21.7510   43.0830   14.0200 C.3   196  GLU196      0.1567
     41  C         20.9930   43.7640   12.8800 C.2   196  GLU196      0.2260
     42  O         19.7660   43.8570   12.9130 O.2   196  GLU196     -0.2867
     43  CB        22.6030   44.1120   14.7670 C.3   196  GLU196      0.0388
     44  CG        23.4400   43.5150   15.8910 C.3   196  GLU196      0.1160
     45  CD        24.4340   44.5020   16.4710 C.2   196  GLU196      0.3649
     46  OE1       25.1390   44.1390   17.4390 O.co2 196  GLU196     -0.2457
     47  OE2       24.5090   45.6370   15.9550 O.co2 196  GLU196     -0.2457
     48  N         30.4930   45.4680   11.6200 N.3   219  LYS219     -0.1245
     49  CA        31.3130   44.3590   12.0810 C.3   219  LYS219      0.1561
     50  C         30.8240   43.0670   11.4290 C.2   219  LYS219      0.2260
     51  O         29.6460   42.7070   11.5330 O.2   219  LYS219     -0.2867
     52  CB        31.2360   44.2670   13.6010 C.3   219  LYS219      0.0271
     53  CG        31.7630   45.5090   14.2890 C.3   219  LYS219      0.0035
     54  CD        31.1510   45.6990   15.6620 C.3   219  LYS219      0.0206
     55  CE        29.6770   46.0560   15.5640 C.3   219  LYS219      0.1093
     56  NZ        29.0760   46.2710   16.9120 N.3   219  LYS219     -0.1314
     57  N         32.0580   39.9480   12.0630 N.3   221  GLY221     -0.1210
     58  CA        32.6160   38.8150   12.7800 C.3   221  GLY221      0.1956
     59  C         34.0820   38.6710   12.4260 C.2   221  GLY221      0.2611
     60  O         34.8610   39.6000   12.6140 O.2   221  GLY221     -0.2717
     61  N         34.4640   37.5110   11.9050 N.am  222  ALA222     -0.1979
     62  CA        35.8500   37.2880   11.5190 C.3   222  ALA222      0.1597
     63  C         36.0890   37.8190   10.1100 C.2   222  ALA222      0.2287
     64  O         37.2300   38.0520    9.7160 O.2   222  ALA222     -0.2864
     65  CB        36.1820   35.8120   11.5820 C.3   222  ALA222      0.0319
     66  N         36.1800   40.3770    9.1550 N.3   224  GLY224     -0.1210
     67  CA        36.6750   41.7300    9.3190 C.3   224  GLY224      0.1956
     68  C         35.6070   42.7230    9.7280 C.2   224  GLY224      0.2611
     69  O         34.9640   42.5620   10.7650 O.2   224  GLY224     -0.2717
     70  N         35.4240   43.7500    8.9010 N.am  225  ALA225     -0.1979
     71  CA        34.4440   44.8020    9.1450 C.3   225  ALA225      0.1597
     72  C         34.6360   45.9190    8.1180 C.2   225  ALA225      0.2287
     73  O         35.7690   46.2330    7.7490 O.2   225  ALA225     -0.2864
     74  CB        34.6180   45.3540   10.5500 C.3   225  ALA225      0.0319
     75  N         39.8870   40.8120    9.8730 N.3   238  ALA238     -0.1231
     76  CA        40.1190   40.3670   11.2470 C.3   238  ALA238      0.1694
     77  C         41.3960   39.5370   11.3670 C.2   238  ALA238      0.2592
     78  O         41.8630   38.9530   10.3930 O.2   238  ALA238     -0.2718
     79  CB        38.9240   39.5580   11.7370 C.3   238  ALA238      0.0304
     80  N         41.9510   39.4870   12.5740 N.am  239  PHE239     -0.1976
     81  CA        43.1770   38.7400   12.8410 C.3   239  PHE239      0.1639
     82  C         42.8930   37.2700   13.1180 C.2   239  PHE239      0.2290
     83  O         42.0920   36.9440   13.9920 O.2   239  PHE239     -0.2864
     84  CB        43.8930   39.3350   14.0550 C.3   239  PHE239      0.0560
     85  CG        44.3260   40.7560   13.8690 C.ar  239  PHE239     -0.0200
     86  CD1       45.6270   41.0540   13.4770 C.ar  239  PHE239     -0.0042
     87  CD2       43.4290   41.7980   14.0660 C.ar  239  PHE239     -0.0042
     88  CE1       46.0310   42.3680   13.2840 C.ar  239  PHE239     -0.0003
     89  CE2       43.8210   43.1150   13.8750 C.ar  239  PHE239     -0.0003
     90  CZ        45.1250   43.4020   13.4830 C.ar  239  PHE239     -0.0000
     91  N         42.6660   34.1310   14.7320 N.3   241  VAL241     -0.1245
     92  CA        42.8410   33.6750   16.1040 C.3   241  VAL241      0.1561
     93  C         41.7720   32.6590   16.4810 C.2   241  VAL241      0.2260
     94  O         40.7460   32.5410   15.8090 O.2   241  VAL241     -0.2867
     95  CB        42.8080   34.8520   17.1150 C.3   241  VAL241      0.0252
     96  CG1       41.4170   35.4660   17.1730 C.3   241  VAL241      0.0019
     97  CG2       43.2480   34.3620   18.4910 C.3   241  VAL241      0.0019
     98  N         38.9410   31.7920   18.6960 N.3   243  ALA243     -0.1245
     99  CA        37.9450   32.3630   19.5900 C.3   243  ALA243      0.1562
    100  C         37.7730   31.5340   20.8550 C.2   243  ALA243      0.2260
    101  O         37.2910   30.4010   20.8150 O.2   243  ALA243     -0.2867
    102  CB        36.6100   32.5000   18.8660 C.3   243  ALA243      0.0290
    103  N         34.3440   34.8070   23.0220 N.3   246  PRO246     -0.2102
    104  CA        33.9170   35.9100   22.1560 C.3   246  PRO246      0.1504
    105  C         33.1750   37.0670   22.8300 C.2   246  PRO246      0.2576
    106  O         32.9320   38.1000   22.2060 O.2   246  PRO246     -0.2718
    107  CB        33.0620   35.2040   21.1050 C.3   246  PRO246      0.0282
    108  CG        32.5010   34.0360   21.8600 C.3   246  PRO246      0.0208
    109  CD        33.7060   33.5460   22.6040 C.3   246  PRO246      0.0893
    110  N         32.8150   36.8950   24.0970 N.am  247  VAL247     -0.1966
    111  CA        32.1060   37.9350   24.8370 C.3   247  VAL247      0.1727
    112  C         32.9570   39.1880   25.0600 C.2   247  VAL247      0.2617
    113  O         34.1070   39.0910   25.4890 O.2   247  VAL247     -0.2715
    114  CB        31.6420   37.3940   26.2180 C.3   247  VAL247      0.0290
    115  CG1       31.4650   38.5340   27.2130 C.3   247  VAL247      0.0023
    116  CG2       30.3320   36.6640   26.0570 C.3   247  VAL247      0.0023
    117  N         32.3870   40.3570   24.7700 N.am  248  GLY248     -0.1940
    118  CA        33.0990   41.6070   24.9740 C.3   248  GLY248      0.2014
    119  C         33.9780   42.0580   23.8270 C.2   248  GLY248      0.2639
    120  O         34.5540   43.1460   23.8750 O.2   248  GLY248     -0.2714
    121  N         34.0800   41.2270   22.7950 N.am  249  ALA249     -0.1963
    122  CA        34.9030   41.5330   21.6270 C.3   249  ALA249      0.1728
    123  C         34.3890   42.7400   20.8300 C.2   249  ALA249      0.2617
    124  O         35.1760   43.5640   20.3530 O.2   249  ALA249     -0.2715
    125  CB        34.9880   40.2950   20.7200 C.3   249  ALA249      0.0334
    126  N         33.0700   42.8340   20.6860 N.am  250  GLY250     -0.1940
    127  CA        32.4780   43.9420   19.9550 C.3   250  GLY250      0.2014
    128  C         32.7380   45.2800   20.6180 C.2   250  GLY250      0.2638
    129  O         32.9340   46.2930   19.9380 O.2   250  GLY250     -0.2714
    130  N         32.7270   45.2760   21.9510 N.am  251  ASP251     -0.1971
    131  CA        32.9760   46.4680   22.7620 C.3   251  ASP251      0.1709
    132  C         34.4360   46.8610   22.6100 C.2   251  ASP251      0.2293
    133  O         34.7730   48.0450   22.5430 O.2   251  ASP251     -0.2864
    134  CB        32.7010   46.1610   24.2300 C.3   251  ASP251      0.1436
    135  CG        31.3070   45.6430   24.4560 C.2   251  ASP251      0.3671
    136  OD1       31.0980   44.9280   25.4610 O.co2 251  ASP251     -0.2456
    137  OD2       30.4160   45.9580   23.6350 O.co2 251  ASP251     -0.2456
    138  N         36.2440   46.1360   20.0510 N.3   253  PHE253     -0.1241
    139  CA        36.3960   46.5950   18.6780 C.3   253  PHE253      0.1605
    140  C         36.1000   48.0840   18.6190 C.2   253  PHE253      0.2264
    141  O         36.8590   48.8560   18.0380 O.2   253  PHE253     -0.2867
    142  CB        35.4220   45.8700   17.7520 C.3   253  PHE253      0.0534
    143  CG        35.4350   46.3810   16.3380 C.ar  253  PHE253     -0.0203
    144  CD1       36.4430   46.0150   15.4570 C.ar  253  PHE253     -0.0042
    145  CD2       34.4300   47.2290   15.8850 C.ar  253  PHE253     -0.0042
    146  CE1       36.4450   46.4860   14.1390 C.ar  253  PHE253     -0.0003
    147  CE2       34.4250   47.7050   14.5730 C.ar  253  PHE253     -0.0003
    148  CZ        35.4310   47.3330   13.6990 C.ar  253  PHE253     -0.0000
    149  N         40.0360   45.9320   14.8950 N.3   275  ASN275     -0.1240
    150  CA        40.0910   44.4750   14.7200 C.3   275  ASN275      0.1653
    151  C         41.1200   43.8480   15.6540 C.2   275  ASN275      0.2266
    152  O         40.9830   42.6970   16.0540 O.2   275  ASN275     -0.2867
    153  CB        40.4220   44.1300   13.2650 C.3   275  ASN275      0.1155
    154  CG        39.1850   44.0040   12.3960 C.2   275  ASN275      0.2627
    155  OD1       38.4580   43.0340   12.4600 O.2   275  ASN275     -0.2716
    156  ND2       38.9380   45.0360   11.5700 N.am  275  ASN275     -0.0877
    157  N         39.4710   43.6580   19.1380 N.3   278  GLY278     -0.1210
    158  CA        38.4140   42.6650   19.0920 C.3   278  GLY278      0.1956
    159  C         38.9550   41.2500   19.1270 C.2   278  GLY278      0.2611
    160  O         38.3810   40.3680   19.7680 O.2   278  GLY278     -0.2717
    161  N         40.0680   41.0350   18.4340 N.am  279  ALA279     -0.1979
    162  CA        40.7110   39.7290   18.3750 C.3   279  ALA279      0.1597
    163  C         41.2920   39.3320   19.7320 C.2   279  ALA279      0.2287
    164  O         41.1040   38.2060   20.2030 O.2   279  ALA279     -0.2864
    165  CB        41.8100   39.7530   17.3250 C.3   279  ALA279      0.0319
    166  N         38.6280   38.4920   22.1700 N.3   282  ALA282     -0.1245
    167  CA        37.9770   37.2840   21.6900 C.3   282  ALA282      0.1562
    168  C         38.8020   36.0700   22.0770 C.2   282  ALA282      0.2260
    169  O         38.2640   35.0400   22.4720 O.2   282  ALA282     -0.2867
    170  CB        37.8280   37.3460   20.1850 C.3   282  ALA282      0.0290
@<TRIPOS>BOND
     1    73    72    2
     2    72    71    1
     3    70    71    1
     4    70    68   am
     5    71    74    1
     6    66    67    1
     7    67    68    1
     8    64    63    2
     9    68    69    2
    10    75    76    1
    11    63    62    1
    12    78    77    2
    13    76    77    1
    14    76    79    1
    15    77    80   am
    16    50    51    2
    17    50    49    1
    18    62    65    1
    19    62    61    1
    20   156   154   am
    21    48    49    1
    22    61    59   am
    23    57    58    1
    24    49    52    1
    25    36    35    2
    26    35    34    1
    27   154   155    2
    28   154   153    1
    29    59    60    2
    30    59    58    1
    31    80    81    1
    32    81    82    1
    33    81    84    1
    34    41    42    2
    35    41    40    1
    36    82    83    2
    37   153   150    1
    38    88    86   ar
    39    88    90   ar
    40    34    33    1
    41    34    37    1
    42    86    85   ar
    43    90    89   ar
    44    39    40    1
    45    52    53    1
    46   148   146   ar
    47   148   147   ar
    48    85    84    1
    49    85    87   ar
    50    89    87   ar
    51    40    43    1
    52   146   144   ar
    53    38    37    1
    54    53    54    1
    55   147   145   ar
    56   150   149    1
    57   150   151    1
    58    91    92    1
    59    43    44    1
    60   144   143   ar
    61    55    54    1
    62    55    56    1
    63   151   152    2
    64    94    93    2
    65   145   143   ar
    66    44    45    1
    67    47    45   ar
    68    92    93    1
    69    92    95    1
    70   143   142    1
    71    45    46   ar
    72    95    96    1
    73    95    97    1
    74   165   162    1
    75   142   139    1
    76   141   140    2
    77   162   161    1
    78   162   163    1
    79   161   159   am
    80   140   139    1
    81   139   138    1
    82    98    99    1
    83   102    99    1
    84   158   159    1
    85   158   157    1
    86   159   160    2
    87    14    15    1
    88    99   100    1
    89   163   164    2
    90   129   128    2
    91   127   128    1
    92   127   126    1
    93   170   167    1
    94   124   123    2
    95    15    16    1
    96    15    18    1
    97   128   130   am
    98   126   123   am
    99   125   122    1
   100   101   100    2
   101    16    17    2
   102   123   122    1
   103   107   108    1
   104   107   104    1
   105   122   121    1
   106   167   168    1
   107   167   166    1
   108    18    19    1
   109   108   109    1
   110   130   131    1
   111    22    23    1
   112   168   169    2
   113   104   105    1
   114   104   103    1
   115   106   105    2
   116    19    21   am
   117    19    20    2
   118   133   132    2
   119   109   103    1
   120   132   131    1
   121   131   134    1
   122    24    23    1
   123    24    25    2
   124   121   119   am
   125   105   110   am
   126    23    26    1
   127    31    30    1
   128   137   135   ar
   129   119   120    2
   130   119   118    1
   131    28    27    1
   132    28    29    1
   133   110   111    1
   134   134   135    1
   135    26    27    1
   136    30    29    2
   137    30    32    1
   138   135   136   ar
   139     6     7    1
   140   117   118    1
   141   117   112   am
   142   111   112    1
   143   111   114    1
   144   112   113    2
   145    11    13    1
   146    11    10    1
   147     7    10    1
   148     7     8    1
   149   116   114    1
   150   114   115    1
   151    10    12    1
   152     5     2    1
   153     8     9    2
   154     4     3    2
   155     2     3    1
   156     2     1    1
