@<TRIPOS>MOLECULE
tmp/1v1gA01.pdb
 78 72 0 0 0
SMALL
GASTEIGER

@<TRIPOS>ATOM
      1  N         34.9040   45.9200   11.0950 N.3   123  VAL123     -0.1245
      2  CA        36.3220   45.8750   11.4380 C.3   123  VAL123      0.1561
      3  C         36.9540   44.4850   11.2700 C.2   123  VAL123      0.2260
      4  O         38.0400   44.3670   10.7160 O.2   123  VAL123     -0.2867
      5  CB        36.5610   46.3800   12.8790 C.3   123  VAL123      0.0252
      6  CG1       38.0130   46.1950   13.2900 C.3   123  VAL123      0.0019
      7  CG2       36.1680   47.8470   13.0130 C.3   123  VAL123      0.0019
      8  N         37.0980   43.8160    7.4300 N.3   126  LEU126     -0.1231
      9  CA        38.0640   44.6800    6.7690 C.3   126  LEU126      0.1693
     10  C         39.4980   44.2370    7.0640 C.2   126  LEU126      0.2591
     11  O         40.3130   44.1430    6.1350 O.2   126  LEU126     -0.2718
     12  CB        37.8380   46.1510    7.1480 C.3   126  LEU126      0.0284
     13  CG        36.4700   46.7670    6.7610 C.3   126  LEU126      0.0019
     14  CD1       36.3720   48.2310    7.2030 C.3   126  LEU126      0.0001
     15  CD2       36.1220   46.6230    5.2560 C.3   126  LEU126      0.0001
     16  N         39.7900   43.9520    8.3420 N.am  127  LEU127     -0.1980
     17  CA        41.0890   43.4230    8.7910 C.3   127  LEU127      0.1596
     18  C         41.4700   42.1980    8.0140 C.2   127  LEU127      0.2287
     19  O         42.5710   42.1220    7.4630 O.2   127  LEU127     -0.2864
     20  CB        41.0660   43.0490   10.2610 C.3   127  LEU127      0.0297
     21  CG        41.3070   44.2030   11.2160 C.3   127  LEU127      0.0022
     22  CD1       41.3400   43.6950   12.6280 C.3   127  LEU127      0.0001
     23  CD2       42.5830   44.8760   10.8730 C.3   127  LEU127      0.0001
     24  N         40.1890   47.7070   19.7020 N.3   142  MET142     -0.1245
     25  CA        40.0700   48.4940   18.4710 C.3   142  MET142      0.1570
     26  C         38.6710   49.0120   18.2770 C.2   142  MET142      0.2261
     27  O         38.4800   50.1990   18.0420 O.2   142  MET142     -0.2867
     28  CB        40.4370   47.6510   17.2630 C.3   142  MET142      0.0387
     29  CG        41.9020   47.5570   17.0700 C.3   142  MET142      0.0595
     30  SD        42.3610   46.6580   15.6200 S.3   142  MET142     -0.1393
     31  CE        44.0320   46.4330   16.0650 C.3   142  MET142      0.0692
     32  N         37.6270   51.6220   20.8350 N.3   145  LYS145     -0.1231
     33  CA        38.2050   52.9380   20.5380 C.3   145  LYS145      0.1693
     34  C         37.4530   53.6080   19.3830 C.2   145  LYS145      0.2591
     35  O         37.0430   54.7630   19.4760 O.2   145  LYS145     -0.2718
     36  CB        39.7050   52.8010   20.2370 C.3   145  LYS145      0.0285
     37  CG        40.5100   54.1070   20.2090 C.3   145  LYS145      0.0035
     38  CD        41.9950   53.8590   19.8460 C.3   145  LYS145      0.0206
     39  CE        42.7310   55.1620   19.4000 C.3   145  LYS145      0.1093
     40  NZ        43.0480   55.3490   17.9030 N.3   145  LYS145     -0.1314
     41  N         37.2340   52.8520   18.3110 N.am  146  ALA146     -0.1980
     42  CA        36.5570   53.3630   17.1230 C.3   146  ALA146      0.1597
     43  C         35.1040   53.6710   17.4570 C.2   146  ALA146      0.2287
     44  O         34.5780   54.7020   17.0320 O.2   146  ALA146     -0.2864
     45  CB        36.6600   52.3770   15.9680 C.3   146  ALA146      0.0319
     46  N         32.9290   60.0890   11.0350 N.3   166  PHE166     -0.1241
     47  CA        33.8190   59.0150   11.3820 C.3   166  PHE166      0.1605
     48  C         34.6920   58.6390   10.1970 C.2   166  PHE166      0.2264
     49  O         35.9240   58.5030   10.3360 O.2   166  PHE166     -0.2867
     50  CB        33.0360   57.8230   11.8860 C.3   166  PHE166      0.0534
     51  CG        33.8920   56.7470   12.4170 C.ar  166  PHE166     -0.0203
     52  CD1       34.9010   57.0330   13.3400 C.ar  166  PHE166     -0.0042
     53  CD2       33.7140   55.4300   11.9780 C.ar  166  PHE166     -0.0042
     54  CE1       35.7080   56.0270   13.8370 C.ar  166  PHE166     -0.0003
     55  CE2       34.5180   54.4050   12.4720 C.ar  166  PHE166     -0.0003
     56  CZ        35.5220   54.7110   13.4050 C.ar  166  PHE166     -0.0000
     57  N         38.5340   58.3730    9.0160 N.3   170  ASN170     -0.1240
     58  CA        38.9100   57.0090    8.6520 C.3   170  ASN170      0.1653
     59  C         38.6030   56.6350    7.1950 C.2   170  ASN170      0.2266
     60  O         37.8850   55.6790    6.9320 O.2   170  ASN170     -0.2867
     61  CB        38.2750   56.0370    9.6270 C.3   170  ASN170      0.1155
     62  CG        38.6920   56.3060   11.0450 C.2   170  ASN170      0.2627
     63  OD1       39.6620   55.7650   11.5220 O.2   170  ASN170     -0.2716
     64  ND2       37.9660   57.1550   11.7140 N.am  170  ASN170     -0.0877
     65  N         39.6200   54.9650    4.9750 N.3   172  SER172     -0.1202
     66  CA        39.8950   53.6430    4.4280 C.3   172  SER172      0.2020
     67  C         38.7140   52.6960    4.6210 C.2   172  SER172      0.2618
     68  O         38.7100   51.6150    4.0460 O.2   172  SER172     -0.2717
     69  CB        41.1760   53.0550    5.0250 C.3   172  SER172      0.2103
     70  OG        41.0390   52.9460    6.4280 O.3   172  SER172     -0.2182
     71  N         37.7130   53.0940    5.4140 N.am  173  LEU173     -0.1979
     72  CA        36.4970   52.2930    5.5860 C.3   173  LEU173      0.1596
     73  C         35.6840   52.2400    4.2990 C.2   173  LEU173      0.2287
     74  O         34.8340   51.3610    4.1560 O.2   173  LEU173     -0.2864
     75  CB        35.5850   52.8810    6.6540 C.3   173  LEU173      0.0297
     76  CG        36.0370   53.0020    8.0770 C.3   173  LEU173      0.0022
     77  CD1       35.1530   54.0560    8.6510 C.3   173  LEU173      0.0001
     78  CD2       35.9130   51.6790    8.8530 C.3   173  LEU173      0.0001
@<TRIPOS>BOND
     1    68    67    2
     2    74    73    2
     3    73    72    1
     4    66    67    1
     5    66    65    1
     6    66    69    1
     7    67    71   am
     8    69    70    1
     9    15    13    1
    10    71    72    1
    11    72    75    1
    12    11    10    2
    13    75    76    1
    14    13    12    1
    15    13    14    1
    16     9    10    1
    17     9    12    1
    18     9     8    1
    19    60    59    2
    20    10    16   am
    21    59    58    1
    22    19    18    2
    23    18    17    1
    24    76    77    1
    25    76    78    1
    26    16    17    1
    27    58    57    1
    28    58    61    1
    29    17    20    1
    30    61    62    1
    31    48    49    2
    32    48    47    1
    33    20    21    1
    34     4     3    2
    35    23    21    1
    36    46    47    1
    37    62    63    2
    38    62    64   am
    39     1     2    1
    40    21    22    1
    41     3     2    1
    42    47    50    1
    43     2     5    1
    44    50    51    1
    45    53    51   ar
    46    53    55   ar
    47    51    52   ar
    48    55    56   ar
    49     5     7    1
    50     5     6    1
    51    52    54   ar
    52    56    54   ar
    53    30    31    1
    54    30    29    1
    55    45    42    1
    56    44    43    2
    57    29    28    1
    58    42    43    1
    59    42    41    1
    60    28    25    1
    61    40    39    1
    62    27    26    2
    63    26    25    1
    64    41    34   am
    65    25    24    1
    66    34    35    2
    67    34    33    1
    68    39    38    1
    69    38    37    1
    70    37    36    1
    71    36    33    1
    72    33    32    1
